@<TRIPOS>MOLECULE
*****
 39 44 0 0 0
SMALL
GASTEIGER

@<TRIPOS>ATOM
      1 SI          5.6958    0.5424    1.2490 Si      1  UNL1        0.0000
      2 C           4.3581    1.8946    1.0330 C.2     1  UNL1        0.0000
      3 C           3.1763    1.3623    0.6505 C.2     1  UNL1        0.0000
      4 C           3.1781   -0.0628    0.4945 C.ar    1  UNL1        0.0000
      5 C           4.4028   -0.7334    0.7564 C.ar    1  UNL1        0.0000
      6 C           4.3646   -2.0841    0.5952 C.ar    1  UNL1        0.0000
      7 S           2.7779   -2.5597    0.1052 S.2     1  UNL1        0.0000
      8 C           2.1803   -0.9330    0.1269 C.ar    1  UNL1        0.0000
      9 C           0.7806   -0.6746   -0.2289 C.ar    1  UNL1        0.0000
     10 C           0.4791   -0.5553   -1.5912 C.ar    1  UNL1        0.0000
     11 C          -0.7870   -0.2698   -2.0463 C.ar    1  UNL1        0.0000
     12 N          -0.9193   -0.1826   -3.3768 N.ar    1  UNL1        0.0000
     13 C          -2.1128    0.1253   -3.9211 C.ar    1  UNL1        0.0000
     14 C          -3.2058    0.4143   -3.1096 C.ar    1  UNL1        0.0000
     15 C          -4.5430    0.8076   -3.3912 C.ar    1  UNL1        0.0000
     16 C          -5.1705    1.0172   -2.1905 C.ar    1  UNL1        0.0000
     17 N          -4.2609    0.7644   -1.1994 N.ar    1  UNL1        0.0000
     18 C          -3.0559    0.3297   -1.7195 C.ar    1  UNL1        0.0000
     19 C          -1.8255   -0.0819   -1.0984 C.ar    1  UNL1        0.0000
     20 C          -1.5709   -0.2822    0.3192 C.ar    1  UNL1        0.0000
     21 C          -2.5666   -0.2692    1.3323 C.ar    1  UNL1        0.0000
     22 C          -2.2759   -0.4253    2.6903 C.ar    1  UNL1        0.0000
     23 C          -0.9700   -0.6217    3.0915 C.ar    1  UNL1        0.0000
     24 C           0.0311   -0.6917    2.1285 C.ar    1  UNL1        0.0000
     25 C          -0.2393   -0.5461    0.7438 C.ar    1  UNL1        0.0000
     26 H           6.7897    0.7124    0.2607 H       1  UNL1        0.0000
     27 H           6.1282    0.4473    2.6657 H       1  UNL1        0.0000
     28 H           4.5867    2.9334    1.2080 H       1  UNL1        0.0000
     29 H           2.2878    1.9574    0.4708 H       1  UNL1        0.0000
     30 H           5.1447   -2.8219    0.7247 H       1  UNL1        0.0000
     31 H           1.2742   -0.6777   -2.3261 H       1  UNL1        0.0000
     32 H          -2.1533    0.1644   -5.0036 H       1  UNL1        0.0000
     33 H          -4.9844    0.9478   -4.3695 H       1  UNL1        0.0000
     34 H          -6.1735    1.3471   -1.9541 H       1  UNL1        0.0000
     35 H          -4.4477    0.9321   -0.2240 H       1  UNL1        0.0000
     36 H          -3.6162   -0.1900    1.0865 H       1  UNL1        0.0000
     37 H          -3.0761   -0.4081    3.4257 H       1  UNL1        0.0000
     38 H          -0.7269   -0.7476    4.1428 H       1  UNL1        0.0000
     39 H           1.0452   -0.8807    2.4777 H       1  UNL1        0.0000
@<TRIPOS>BOND
     1     1     2    1
     2     2     3    2
     3     3     4    1
     4     4     5   ar
     5     5     6   ar
     6     6     7   ar
     7     7     8   ar
     8     8     9    1
     9     9    10   ar
    10    10    11   ar
    11    11    12   ar
    12    12    13   ar
    13    13    14   ar
    14    14    15   ar
    15    15    16   ar
    16    16    17   ar
    17    17    18   ar
    18    18    19   ar
    19    19    20   ar
    20    20    21   ar
    21    21    22   ar
    22    22    23   ar
    23    23    24   ar
    24    24    25   ar
    25     5     1    1
    26    25     9   ar
    27     8     4   ar
    28    19    11   ar
    29    25    20   ar
    30    18    14   ar
    31     1    26    1
    32     1    27    1
    33     2    28    1
    34     3    29    1
    35     6    30    1
    36    10    31    1
    37    13    32    1
    38    15    33    1
    39    16    34    1
    40    17    35    1
    41    21    36    1
    42    22    37    1
    43    23    38    1
    44    24    39    1
