@<TRIPOS>MOLECULE
*****
 38 39 0 0 0
SMALL
GASTEIGER

@<TRIPOS>ATOM
      1 C           5.9216   -0.3686   -2.0674 C.3     1  UNL1       -0.0120
      2 S           4.1189   -0.1875   -2.0121 S.3     1  UNL1       -0.1085
      3 C           3.8871    0.3786   -0.3281 C.ar    1  UNL1        0.1106
      4 N           5.0126    0.6956    0.3634 N.ar    1  UNL1       -0.2479
      5 C           4.8742    1.1825    1.6177 C.ar    1  UNL1        0.0289
      6 C           3.6527    1.3856    2.2344 C.ar    1  UNL1       -0.0427
      7 C           2.5025    1.0618    1.5257 C.ar    1  UNL1       -0.0438
      8 C           2.6207    0.5397    0.2329 C.ar    1  UNL1        0.0907
      9 C           1.3859    0.2107   -0.4846 C.2     1  UNL1        0.3422
     10 O           0.5241    1.0273   -0.7691 O.2     1  UNL1       -0.2449
     11 O           1.3236   -1.1283   -0.6644 O.3     1  UNL1       -0.4517
     12 C           0.1680   -1.5951   -1.3599 C.3     1  UNL1        0.1684
     13 C          -1.1102   -1.5606   -0.5171 C.2     1  UNL1        0.2510
     14 O          -1.4782   -2.5083    0.1703 O.2     1  UNL1       -0.2721
     15 N          -1.8077   -0.3683   -0.5926 N.am    1  UNL1       -0.3081
     16 C          -2.9450   -0.1114    0.2755 C.3     1  UNL1        0.0440
     17 C          -3.4796    1.3106    0.0708 C.3     1  UNL1       -0.0136
     18 C          -4.7541    1.4003    0.8944 C.3     1  UNL1        0.0675
     19 S          -5.5336   -0.1945    0.7197 S.O2    1  UNL1       -0.0292
     20 O          -5.7933   -0.7186    2.0444 O.2     1  UNL1       -0.1743
     21 O          -6.5692   -0.0921   -0.2875 O.2     1  UNL1       -0.1743
     22 C          -4.1313   -1.0432    0.0185 C.3     1  UNL1        0.0841
     23 H           6.2076   -0.7534   -3.0502 H       1  UNL1        0.0344
     24 H           6.4149    0.5965   -1.9226 H       1  UNL1        0.0344
     25 H           6.2642   -1.0786   -1.3095 H       1  UNL1        0.0344
     26 H           5.8051    1.4175    2.1277 H       1  UNL1        0.0830
     27 H           3.5992    1.7860    3.2412 H       1  UNL1        0.0633
     28 H           1.5242    1.2098    1.9760 H       1  UNL1        0.0627
     29 H           0.0263   -1.0344   -2.2923 H       1  UNL1        0.0796
     30 H           0.3500   -2.6360   -1.6484 H       1  UNL1        0.0796
     31 H          -1.2247    0.4333   -0.8500 H       1  UNL1        0.1491
     32 H          -2.6038   -0.2272    1.3127 H       1  UNL1        0.0515
     33 H          -2.7528    2.0708    0.3755 H       1  UNL1        0.0299
     34 H          -3.7043    1.4810   -0.9901 H       1  UNL1        0.0299
     35 H          -5.4276    2.1841    0.5423 H       1  UNL1        0.0500
     36 H          -4.5274    1.5493    1.9542 H       1  UNL1        0.0500
     37 H          -4.0236   -2.0176    0.4999 H       1  UNL1        0.0518
     38 H          -4.3169   -1.1785   -1.0516 H       1  UNL1        0.0518
@<TRIPOS>BOND
     1     1     2    1
     2     2     3    1
     3     3     4   ar
     4     4     5   ar
     5     5     6   ar
     6     6     7   ar
     7     7     8   ar
     8     8     9    1
     9     9    10    2
    10     9    11    1
    11    11    12    1
    12    12    13    1
    13    13    14    2
    14    13    15   am
    15    15    16    1
    16    16    17    1
    17    17    18    1
    18    18    19    1
    19    19    20    2
    20    19    21    2
    21    19    22    1
    22     8     3   ar
    23    22    16    1
    24     1    23    1
    25     1    24    1
    26     1    25    1
    27     5    26    1
    28     6    27    1
    29     7    28    1
    30    12    29    1
    31    12    30    1
    32    15    31    1
    33    16    32    1
    34    17    33    1
    35    17    34    1
    36    18    35    1
    37    18    36    1
    38    22    37    1
    39    22    38    1
