@<TRIPOS>MOLECULE
*****
 33 34 0 0 0
SMALL
GASTEIGER

@<TRIPOS>ATOM
      1 C          -2.5644   -1.0453    2.0784 C.3     1  UNL1       -0.0120
      2 S          -1.3921   -0.2804    0.9296 S.3     1  UNL1       -0.1085
      3 C          -2.3880   -0.1741   -0.5573 C.ar    1  UNL1        0.1106
      4 N          -3.6688   -0.6199   -0.4551 N.ar    1  UNL1       -0.2479
      5 C          -4.4737   -0.5074   -1.5353 C.ar    1  UNL1        0.0289
      6 C          -4.0715    0.0367   -2.7410 C.ar    1  UNL1       -0.0427
      7 C          -2.7634    0.4902   -2.8467 C.ar    1  UNL1       -0.0438
      8 C          -1.9042    0.3724   -1.7464 C.ar    1  UNL1        0.0907
      9 C          -0.5356    0.8773   -1.9038 C.2     1  UNL1        0.3421
     10 O          -0.2802    2.0278   -2.2169 O.2     1  UNL1       -0.2449
     11 O           0.3343   -0.1461   -1.7540 O.3     1  UNL1       -0.4563
     12 C           1.7187    0.2034   -1.8573 C.3     1  UNL1        0.1181
     13 C           2.2826    0.3842   -0.4708 C.ar    1  UNL1       -0.0039
     14 C           2.3230    1.6575    0.1190 C.ar    1  UNL1       -0.0549
     15 C           2.8063    1.8267    1.4188 C.ar    1  UNL1       -0.0550
     16 C           3.2489    0.7239    2.1507 C.ar    1  UNL1        0.0156
     17 C           3.1957   -0.5516    1.5744 C.ar    1  UNL1        0.2735
     18 N           3.6419   -1.7170    2.3482 N.pl3   1  UNL1        0.0796
     19 O           3.5618   -2.8315    1.8118 O.2     1  UNL1        0.0414
     20 O           4.0779   -1.5198    3.4918 O.co2   1  UNL1       -0.5760
     21 C           2.7153   -0.7272    0.2691 C.ar    1  UNL1        0.0220
     22 H          -3.4443   -0.4105    2.2186 H       1  UNL1        0.0344
     23 H          -2.8708   -2.0328    1.7231 H       1  UNL1        0.0344
     24 H          -2.0755   -1.1701    3.0486 H       1  UNL1        0.0344
     25 H          -5.4861   -0.8786   -1.3977 H       1  UNL1        0.0830
     26 H          -4.7600    0.1099   -3.5748 H       1  UNL1        0.0633
     27 H          -2.4123    0.9348   -3.7749 H       1  UNL1        0.0627
     28 H           2.2306   -0.6229   -2.3622 H       1  UNL1        0.0749
     29 H           1.8906    1.0896   -2.4799 H       1  UNL1        0.0749
     30 H           1.9607    2.5270   -0.4302 H       1  UNL1        0.0621
     31 H           2.8271    2.8197    1.8639 H       1  UNL1        0.0620
     32 H           3.6162    0.8731    3.1639 H       1  UNL1        0.0685
     33 H           2.6592   -1.7193   -0.1742 H       1  UNL1        0.0689
@<TRIPOS>UNITY_ATOM_ATTR
18 1
charge 1
20 1
charge -1
@<TRIPOS>BOND
     1     1     2    1
     2     2     3    1
     3     3     4   ar
     4     4     5   ar
     5     5     6   ar
     6     6     7   ar
     7     7     8   ar
     8     8     9    1
     9     9    10    2
    10     9    11    1
    11    11    12    1
    12    12    13    1
    13    13    14   ar
    14    14    15   ar
    15    15    16   ar
    16    16    17   ar
    17    17    18    1
    18    18    19    2
    19    18    20    1
    20    17    21   ar
    21     8     3   ar
    22    21    13   ar
    23     1    22    1
    24     1    23    1
    25     1    24    1
    26     5    25    1
    27     6    26    1
    28     7    27    1
    29    12    28    1
    30    12    29    1
    31    14    30    1
    32    15    31    1
    33    16    32    1
    34    21    33    1
