@<TRIPOS>MOLECULE
*****
 41 43 0 0 0
SMALL
GASTEIGER

@<TRIPOS>ATOM
      1 C           5.2700   -1.5892    1.7662 C.3     1  UNL1       -0.0106
      2 S           4.0923   -0.2949    1.3176 S.3     1  UNL1       -0.0888
      3 C           4.0991   -0.4141   -0.4362 C.ar    1  UNL1        0.1969
      4 N           5.0675   -1.0635   -1.0874 N.ar    1  UNL1       -0.1817
      5 S           4.6849   -0.9691   -2.7127 S.2     1  UNL1        0.0411
      6 C           3.2678   -0.0550   -2.4219 C.ar    1  UNL1        0.1557
      7 S           2.1647    0.5204   -3.6416 S.3     1  UNL1       -0.0880
      8 C           1.0310   -0.8925   -3.7670 C.3     1  UNL1        0.0769
      9 C           0.6970   -1.5090   -2.4178 C.2     1  UNL1        0.2259
     10 O           1.1919   -2.6010   -2.1213 O.2     1  UNL1       -0.2747
     11 N          -0.1462   -0.8327   -1.5549 N.am    1  UNL1       -0.2978
     12 C          -0.3093   -1.3506   -0.1934 C.3     1  UNL1        0.0305
     13 C          -0.6478   -0.2598    0.8395 C.3     1  UNL1        0.0280
     14 N          -1.8416    0.5036    0.4398 N.pl3   1  UNL1       -0.3269
     15 C          -2.6216    1.1701    1.3727 C.ar    1  UNL1        0.0298
     16 C          -3.9526    1.5314    1.1012 C.ar    1  UNL1       -0.0407
     17 C          -4.7499    2.1992    2.0407 C.ar    1  UNL1       -0.0600
     18 C          -4.2288    2.5307    3.2844 C.ar    1  UNL1       -0.0616
     19 C          -2.9171    2.1893    3.5861 C.ar    1  UNL1       -0.0600
     20 C          -2.1295    1.5148    2.6413 C.ar    1  UNL1       -0.0407
     21 C          -2.1075    0.6333   -1.0023 C.3     1  UNL1        0.0280
     22 C          -0.8287    0.4355   -1.8409 C.3     1  UNL1        0.0305
     23 N           3.0770    0.1951   -1.1466 N.ar    1  UNL1       -0.2063
     24 H           4.9550   -2.5577    1.3631 H       1  UNL1        0.0345
     25 H           6.2757   -1.3487    1.4059 H       1  UNL1        0.0345
     26 H           5.3044   -1.6715    2.8551 H       1  UNL1        0.0345
     27 H           1.5095   -1.6626   -4.3833 H       1  UNL1        0.0475
     28 H           0.1183   -0.6016   -4.2944 H       1  UNL1        0.0475
     29 H          -1.1231   -2.0835   -0.2367 H       1  UNL1        0.0480
     30 H           0.5976   -1.8804    0.1183 H       1  UNL1        0.0480
     31 H           0.2003    0.4275    0.9450 H       1  UNL1        0.0479
     32 H          -0.8098   -0.7566    1.8055 H       1  UNL1        0.0479
     33 H          -4.4097    1.2693    0.1506 H       1  UNL1        0.0636
     34 H          -5.7780    2.4517    1.7939 H       1  UNL1        0.0618
     35 H          -4.8422    3.0530    4.0160 H       1  UNL1        0.0618
     36 H          -2.4946    2.4476    4.5526 H       1  UNL1        0.0618
     37 H          -1.1044    1.2842    2.9185 H       1  UNL1        0.0636
     38 H          -2.8541   -0.1170   -1.2941 H       1  UNL1        0.0479
     39 H          -2.5070    1.6262   -1.2419 H       1  UNL1        0.0479
     40 H          -0.1183    1.2379   -1.6153 H       1  UNL1        0.0480
     41 H          -1.0820    0.4944   -2.9042 H       1  UNL1        0.0480
@<TRIPOS>BOND
     1     1     2    1
     2     2     3    1
     3     3     4   ar
     4     4     5   ar
     5     5     6   ar
     6     6     7    1
     7     7     8    1
     8     8     9    1
     9     9    10    2
    10     9    11   am
    11    11    12    1
    12    12    13    1
    13    13    14    1
    14    14    15    1
    15    15    16   ar
    16    16    17   ar
    17    17    18   ar
    18    18    19   ar
    19    19    20   ar
    20    14    21    1
    21    21    22    1
    22     6    23   ar
    23    23     3   ar
    24    22    11    1
    25    20    15   ar
    26     1    24    1
    27     1    25    1
    28     1    26    1
    29     8    27    1
    30     8    28    1
    31    12    29    1
    32    12    30    1
    33    13    31    1
    34    13    32    1
    35    16    33    1
    36    17    34    1
    37    18    35    1
    38    19    36    1
    39    20    37    1
    40    21    38    1
    41    21    39    1
    42    22    40    1
    43    22    41    1
