@<TRIPOS>MOLECULE
*****
 38 38 0 0 0
SMALL
GASTEIGER

@<TRIPOS>ATOM
      1 C          -4.2188   -2.5083    1.4907 C.3     1  UNL1       -0.0181
      2 S          -4.9878   -1.0654    0.7100 S.3     1  UNL1       -0.1641
      3 C          -3.5364   -0.4004   -0.1732 C.3     1  UNL1       -0.0044
      4 C          -2.5886    0.3402    0.7718 C.3     1  UNL1       -0.0169
      5 C          -1.3212    0.8816    0.0888 C.3     1  UNL1        0.1015
      6 N          -1.6506    1.8238   -0.9856 N.am    1  UNL1       -0.2882
      7 C          -0.7910    2.8172   -1.3395 C.2     1  UNL1        0.2976
      8 N          -1.2674    3.5719   -2.3573 N.am    1  UNL1       -0.3133
      9 O           0.3081    3.0054   -0.8407 O.2     1  UNL1       -0.2531
     10 C          -0.3787   -0.2566   -0.3830 C.2     1  UNL1        0.2337
     11 O          -0.5856   -1.4420   -0.1324 O.2     1  UNL1       -0.2738
     12 N           0.7578    0.1829   -1.0268 N.am    1  UNL1       -0.3097
     13 C           1.8416   -0.7049   -1.3689 C.3     1  UNL1        0.0369
     14 C           2.8754   -0.7407   -0.2735 C.ar    1  UNL1       -0.0289
     15 C           2.7760   -1.6775    0.7662 C.ar    1  UNL1       -0.0570
     16 C           3.7183   -1.6996    1.7962 C.ar    1  UNL1       -0.0601
     17 C           4.7662   -0.7797    1.8021 C.ar    1  UNL1       -0.0434
     18 C           4.8638    0.1621    0.7799 C.ar    1  UNL1        0.0413
     19 CL          6.1525    1.3031    0.7912 Cl      1  UNL1       -0.0835
     20 C           3.9252    0.1894   -0.2518 C.ar    1  UNL1       -0.0387
     21 H          -3.7509   -3.1473    0.7373 H       1  UNL1        0.0340
     22 H          -3.4753   -2.2013    2.2297 H       1  UNL1        0.0340
     23 H          -4.9911   -3.0882    2.0034 H       1  UNL1        0.0340
     24 H          -3.9236    0.2902   -0.9289 H       1  UNL1        0.0377
     25 H          -3.0440   -1.2170   -0.7078 H       1  UNL1        0.0377
     26 H          -3.1252    1.1848    1.2246 H       1  UNL1        0.0296
     27 H          -2.2827   -0.3173    1.5943 H       1  UNL1        0.0296
     28 H          -0.7549    1.4348    0.8509 H       1  UNL1        0.0595
     29 H          -2.1696    1.4563   -1.7713 H       1  UNL1        0.1510
     30 H          -2.2579    3.7721   -2.3321 H       1  UNL1        0.1465
     31 H          -0.6922    4.3831   -2.5526 H       1  UNL1        0.1465
     32 H           0.9699    1.1786   -0.9640 H       1  UNL1        0.1491
     33 H           2.2886   -0.3348   -2.2983 H       1  UNL1        0.0512
     34 H           1.4605   -1.7122   -1.5716 H       1  UNL1        0.0512
     35 H           1.9532   -2.3916    0.7793 H       1  UNL1        0.0621
     36 H           3.6310   -2.4311    2.5956 H       1  UNL1        0.0618
     37 H           5.4970   -0.7987    2.6058 H       1  UNL1        0.0632
     38 H           4.0087    0.9372   -1.0370 H       1  UNL1        0.0635
@<TRIPOS>BOND
     1     1     2    1
     2     2     3    1
     3     3     4    1
     4     4     5    1
     5     5     6    1
     6     6     7   am
     7     7     8   am
     8     7     9    2
     9     5    10    1
    10    10    11    2
    11    10    12   am
    12    12    13    1
    13    13    14    1
    14    14    15   ar
    15    15    16   ar
    16    16    17   ar
    17    17    18   ar
    18    18    19    1
    19    18    20   ar
    20    20    14   ar
    21     1    21    1
    22     1    22    1
    23     1    23    1
    24     3    24    1
    25     3    25    1
    26     4    26    1
    27     4    27    1
    28     5    28    1
    29     6    29    1
    30     8    30    1
    31     8    31    1
    32    12    32    1
    33    13    33    1
    34    13    34    1
    35    15    35    1
    36    16    36    1
    37    17    37    1
    38    20    38    1
