@<TRIPOS>MOLECULE
*****
 33 36 0 0 0
SMALL
GASTEIGER

@<TRIPOS>ATOM
      1 F          -0.0135   -1.9085    1.2657 F       1  UNL1        0.0000
      2 B          -0.1271   -1.1250    0.0302 B       1  UNL1        0.0000
      3 N           0.8654    0.0166   -0.0153 N.2     1  UNL1        1.0000
      4 C           2.1405    0.0440    0.0219 C.ar    1  UNL1        0.0000
      5 C           3.2579   -0.7702    0.1101 C.ar    1  UNL1        0.0000
      6 C           4.3517    0.0802    0.0871 C.ar    1  UNL1        0.0000
      7 C           5.7919   -0.3246    0.1580 C.3     1  UNL1        0.0000
      8 O           3.9301    1.3167   -0.0079 O.2     1  UNL1        0.0000
      9 C           2.6155    1.3430   -0.0499 C.ar    1  UNL1        0.0000
     10 C           1.6005    2.1975   -0.1377 C.2     1  UNL1        0.0000
     11 C           0.4016    1.3562   -0.1184 C.2     1  UNL1        0.0000
     12 C          -0.8578    1.6866   -0.1788 C.2     1  UNL1        0.0000
     13 F           0.0619   -2.0361   -1.1124 F       1  UNL1        0.0000
     14 N          -1.5624   -0.6316   -0.0464 N.ar    1  UNL1        0.0000
     15 C          -1.8856    0.6509   -0.1415 C.ar    1  UNL1        0.0000
     16 C          -3.2520    0.8027   -0.1933 C.ar    1  UNL1        0.0000
     17 C          -4.0293    2.0443   -0.2995 C.3     1  UNL1        0.0000
     18 C          -3.7883   -0.4659   -0.1254 C.ar    1  UNL1        0.0000
     19 C          -2.7114   -1.3239   -0.0355 C.ar    1  UNL1        0.0000
     20 C          -2.8700   -2.8026    0.0579 C.3     1  UNL1        0.0000
     21 H           3.2458   -1.8474    0.1813 H       1  UNL1        0.0000
     22 H           6.2204   -0.4711   -0.8563 H       1  UNL1        0.0000
     23 H           6.4007    0.4924    0.6304 H       1  UNL1        0.0000
     24 H           5.9010   -1.2149    0.8047 H       1  UNL1        0.0000
     25 H           1.6134    3.2734   -0.2087 H       1  UNL1        0.0000
     26 H          -1.1328    2.7350   -0.2569 H       1  UNL1        0.0000
     27 H          -3.6476    2.6386   -1.1795 H       1  UNL1        0.0000
     28 H          -3.8819    2.6287    0.6195 H       1  UNL1        0.0000
     29 H          -5.0861    1.8308   -0.5285 H       1  UNL1        0.0000
     30 H          -4.8513   -0.7350   -0.1400 H       1  UNL1        0.0000
     31 H          -2.0309   -3.3011   -0.4718 H       1  UNL1        0.0000
     32 H          -3.8509   -3.1274   -0.3141 H       1  UNL1        0.0000
     33 H          -2.8193   -3.0522    1.1440 H       1  UNL1        0.0000
@<TRIPOS>UNITY_ATOM_ATTR
2 1
charge -1
3 1
charge 1
@<TRIPOS>BOND
     1     1     2    1
     2     2     3    1
     3     3     4    2
     4     4     5   ar
     5     5     6   ar
     6     6     7    1
     7     6     8   ar
     8     8     9   ar
     9     9    10    2
    10    10    11    1
    11    11    12    2
    12     2    13    1
    13     2    14    1
    14    14    15   ar
    15    15    16   ar
    16    16    17    1
    17    16    18   ar
    18    18    19   ar
    19    19    20    1
    20    11     3    1
    21     9     4   ar
    22    15    12    1
    23    19    14   ar
    24     5    21    1
    25     7    22    1
    26     7    23    1
    27     7    24    1
    28    10    25    1
    29    12    26    1
    30    17    27    1
    31    17    28    1
    32    17    29    1
    33    18    30    1
    34    20    31    1
    35    20    32    1
    36    20    33    1
