@<TRIPOS>MOLECULE
*****
 21 23 0 0 0
SMALL
GASTEIGER

@<TRIPOS>ATOM
      1 F          -0.3815   -1.9397    1.6125 F       1  UNL1        0.0000
      2 B          -0.1813   -1.3993    0.2421 B       1  UNL1        0.0000
      3 N           1.1655   -0.7242    0.1441 N.2     1  UNL1        1.0000
      4 C           2.3820   -1.2452    0.2599 C.2     1  UNL1        0.0000
      5 C           3.3756   -0.2154    0.0915 C.2     1  UNL1        0.0000
      6 C           2.7460    0.9178   -0.1245 C.2     1  UNL1        0.0000
      7 C           1.2852    0.6522   -0.1025 C.2     1  UNL1        0.0000
      8 C           0.2386    1.4414   -0.2638 C.2     1  UNL1        0.0000
      9 F          -0.2812   -2.5381   -0.6718 F       1  UNL1        0.0000
     10 N          -1.3240   -0.4236    0.0454 N.ar    1  UNL1        0.0000
     11 C          -1.1176    0.8617   -0.1832 C.ar    1  UNL1        0.0000
     12 C          -2.3746    1.4594   -0.3136 C.ar    1  UNL1        0.0000
     13 C          -3.3539    0.5138   -0.1601 C.ar    1  UNL1        0.0000
     14 C          -2.6888   -0.6582    0.0635 C.ar    1  UNL1        0.0000
     15 H           2.5738   -2.3080    0.4554 H       1  UNL1        0.0000
     16 H           4.4403   -0.3372    0.1325 H       1  UNL1        0.0000
     17 H           3.1511    1.9026   -0.2953 H       1  UNL1        0.0000
     18 H           0.3698    2.4767   -0.4486 H       1  UNL1        0.0000
     19 H          -2.4799    2.5127   -0.5058 H       1  UNL1        0.0000
     20 H          -4.4206    0.6800   -0.2091 H       1  UNL1        0.0000
     21 H          -3.1243   -1.6295    0.2313 H       1  UNL1        0.0000
@<TRIPOS>UNITY_ATOM_ATTR
2 1
charge -1
3 1
charge 1
@<TRIPOS>BOND
     1     1     2    1
     2     2     3    1
     3     3     4    2
     4     4     5    1
     5     5     6    2
     6     6     7    1
     7     7     8    2
     8     2     9    1
     9     2    10    1
    10    10    11   ar
    11    11    12   ar
    12    12    13   ar
    13    13    14   ar
    14     7     3    1
    15    11     8    1
    16    14    10   ar
    17     4    15    1
    18     5    16    1
    19     6    17    1
    20     8    18    1
    21    12    19    1
    22    13    20    1
    23    14    21    1
