@<TRIPOS>MOLECULE
*****
 29 31 0 0 0
SMALL
GASTEIGER

@<TRIPOS>ATOM
      1 F          -3.4034    0.4142    0.8199 F       1  UNL1        0.0000
      2 B          -2.4107    0.4581   -0.2488 B       1  UNL1        0.0000
      3 N          -1.8166   -0.9421   -0.3462 N.2     1  UNL1        1.0000
      4 C          -2.3470   -2.1051   -0.5577 C.2     1  UNL1        0.0000
      5 C          -1.3526   -3.1600   -0.5614 C.2     1  UNL1        0.0000
      6 C          -0.1950   -2.5690   -0.3407 C.2     1  UNL1        0.0000
      7 C          -0.4215   -1.1130   -0.1895 C.2     1  UNL1        0.0000
      8 C           0.3852   -0.1003    0.0386 C.2     1  UNL1        0.0000
      9 N           1.7740   -0.3510    0.1846 N.pl3   1  UNL1        0.0000
     10 C           2.6874    0.1093   -0.8358 C.3     1  UNL1        0.0000
     11 C           2.2331   -1.0573    1.3463 C.3     1  UNL1        0.0000
     12 F          -3.1196    0.8329   -1.4579 F       1  UNL1        0.0000
     13 N          -1.3630    1.5228    0.0165 N.ar    1  UNL1        0.0000
     14 C          -0.0541    1.2852    0.1539 C.ar    1  UNL1        0.0000
     15 C           0.6090    2.4733    0.3854 C.ar    1  UNL1        0.0000
     16 C          -0.3519    3.4498    0.3837 C.ar    1  UNL1        0.0000
     17 C          -1.5822    2.8676    0.1549 C.ar    1  UNL1        0.0000
     18 H          -3.4183   -2.2354   -0.7104 H       1  UNL1        0.0000
     19 H          -1.5362   -4.2310   -0.7173 H       1  UNL1        0.0000
     20 H           0.7616   -3.0372   -0.2767 H       1  UNL1        0.0000
     21 H           2.3187    1.0376   -1.3415 H       1  UNL1        0.0000
     22 H           2.7531   -0.6552   -1.6370 H       1  UNL1        0.0000
     23 H           3.6849    0.3611   -0.4202 H       1  UNL1        0.0000
     24 H           1.5373   -1.0398    2.1869 H       1  UNL1        0.0000
     25 H           3.1999   -0.5884    1.6826 H       1  UNL1        0.0000
     26 H           2.4892   -2.1270    1.1188 H       1  UNL1        0.0000
     27 H           1.6559    2.6173    0.5367 H       1  UNL1        0.0000
     28 H          -0.1853    4.5036    0.5353 H       1  UNL1        0.0000
     29 H          -2.5318    3.3790    0.0971 H       1  UNL1        0.0000
@<TRIPOS>UNITY_ATOM_ATTR
2 1
charge -1
3 1
charge 1
@<TRIPOS>BOND
     1     1     2    1
     2     2     3    1
     3     3     4    2
     4     4     5    1
     5     5     6    2
     6     6     7    1
     7     7     8    2
     8     8     9    1
     9     9    10    1
    10     9    11    1
    11     2    12    1
    12     2    13    1
    13    13    14   ar
    14    14    15   ar
    15    15    16   ar
    16    16    17   ar
    17     7     3    1
    18    14     8    1
    19    17    13   ar
    20     4    18    1
    21     5    19    1
    22     6    20    1
    23    10    21    1
    24    10    22    1
    25    10    23    1
    26    11    24    1
    27    11    25    1
    28    11    26    1
    29    15    27    1
    30    16    28    1
    31    17    29    1
