@<TRIPOS>MOLECULE
*****
 23 25 0 0 0
SMALL
GASTEIGER

@<TRIPOS>ATOM
      1 F           0.7070   -2.5305    1.2569 F       1  UNL1        0.0000
      2 B           0.3479   -1.7124    0.0942 B       1  UNL1        0.0000
      3 N           1.3941   -0.6512   -0.1656 N.2     1  UNL1        1.0000
      4 C           2.6882   -0.7420   -0.3678 C.2     1  UNL1        0.0000
      5 C           3.2827    0.5611   -0.5749 C.2     1  UNL1        0.0000
      6 C           2.3092    1.4423   -0.4918 C.2     1  UNL1        0.0000
      7 C           1.0548    0.7091   -0.2260 C.2     1  UNL1        0.0000
      8 C          -0.1982    1.1391   -0.0592 C.2     1  UNL1        0.0000
      9 N          -0.4846    2.5236   -0.1303 N.pl3   1  UNL1        0.0000
     10 F           0.2375   -2.6048   -1.0883 F       1  UNL1        0.0000
     11 N          -1.0309   -1.1139    0.2671 N.ar    1  UNL1        0.0000
     12 C          -1.2719    0.1900    0.1956 C.ar    1  UNL1        0.0000
     13 C          -2.6507    0.3690    0.4040 C.ar    1  UNL1        0.0000
     14 C          -3.2325   -0.8565    0.6024 C.ar    1  UNL1        0.0000
     15 C          -2.2206   -1.7721    0.5160 C.ar    1  UNL1        0.0000
     16 H           3.2147   -1.6878   -0.3729 H       1  UNL1        0.0000
     17 H           4.3433    0.7214   -0.7606 H       1  UNL1        0.0000
     18 H           2.4088    2.5112   -0.5987 H       1  UNL1        0.0000
     19 H          -1.3134    2.8690   -0.6708 H       1  UNL1        0.0000
     20 H           0.1281    3.2365    0.3578 H       1  UNL1        0.0000
     21 H          -3.1307    1.3373    0.3997 H       1  UNL1        0.0000
     22 H          -4.2622   -1.0948    0.7897 H       1  UNL1        0.0000
     23 H          -2.3204   -2.8437    0.6232 H       1  UNL1        0.0000
@<TRIPOS>UNITY_ATOM_ATTR
2 1
charge -1
3 1
charge 1
@<TRIPOS>BOND
     1     1     2    1
     2     2     3    1
     3     3     4    2
     4     4     5    1
     5     5     6    2
     6     6     7    1
     7     7     8    2
     8     8     9    1
     9     2    10    1
    10     2    11    1
    11    11    12   ar
    12    12    13   ar
    13    13    14   ar
    14    14    15   ar
    15     7     3    1
    16    12     8    1
    17    15    11   ar
    18     4    16    1
    19     5    17    1
    20     6    18    1
    21     9    19    1
    22     9    20    1
    23    13    21    1
    24    14    22    1
    25    15    23    1
