@<TRIPOS>MOLECULE
*****
 26 28 0 0 0
SMALL
GASTEIGER

@<TRIPOS>ATOM
      1 F           2.3285    2.1753   -0.8654 F       1  UNL1        0.0000
      2 B           1.5055    1.5528    0.2038 B       1  UNL1        0.0000
      3 N           1.8567    0.0830    0.2000 N.2     1  UNL1        1.0000
      4 C           3.0240   -0.5202    0.3965 C.2     1  UNL1        0.0000
      5 C           2.8827   -1.9546    0.2992 C.2     1  UNL1        0.0000
      6 C           1.6138   -2.1922    0.0420 C.2     1  UNL1        0.0000
      7 C           0.8926   -0.9061   -0.0348 C.2     1  UNL1        0.0000
      8 C          -0.3905   -0.6120   -0.2687 C.2     1  UNL1        0.0000
      9 N          -1.3040   -1.6587   -0.4966 N.pl3   1  UNL1        0.0000
     10 C          -2.4497   -1.9320    0.3532 C.3     1  UNL1        0.0000
     11 F           1.9077    2.1523    1.4857 F       1  UNL1        0.0000
     12 N           0.0352    1.7870   -0.0693 N.ar    1  UNL1        0.0000
     13 C          -0.8095    0.7872   -0.2815 C.ar    1  UNL1        0.0000
     14 C          -2.0651    1.3728   -0.4959 C.ar    1  UNL1        0.0000
     15 C          -1.9431    2.7362   -0.4057 C.ar    1  UNL1        0.0000
     16 C          -0.6287    2.9929   -0.1389 C.ar    1  UNL1        0.0000
     17 H           3.9396    0.0278    0.6004 H       1  UNL1        0.0000
     18 H           3.6982   -2.6536    0.4229 H       1  UNL1        0.0000
     19 H           1.1415   -3.1556   -0.0964 H       1  UNL1        0.0000
     20 H          -1.1941   -2.3148   -1.3234 H       1  UNL1        0.0000
     21 H          -3.3490   -1.7356   -0.2625 H       1  UNL1        0.0000
     22 H          -2.4231   -1.3026    1.2506 H       1  UNL1        0.0000
     23 H          -2.4138   -2.9908    0.7044 H       1  UNL1        0.0000
     24 H          -2.9570    0.7937   -0.6968 H       1  UNL1        0.0000
     25 H          -2.7288    3.4870   -0.5211 H       1  UNL1        0.0000
     26 H          -0.1694    3.9809   -0.0018 H       1  UNL1        0.0000
@<TRIPOS>UNITY_ATOM_ATTR
2 1
charge -1
3 1
charge 1
@<TRIPOS>BOND
     1     1     2    1
     2     2     3    1
     3     3     4    2
     4     4     5    1
     5     5     6    2
     6     6     7    1
     7     7     8    2
     8     8     9    1
     9     9    10    1
    10     2    11    1
    11     2    12    1
    12    12    13   ar
    13    13    14   ar
    14    14    15   ar
    15    15    16   ar
    16     7     3    1
    17    13     8    1
    18    16    12   ar
    19     4    17    1
    20     5    18    1
    21     6    19    1
    22     9    20    1
    23    10    21    1
    24    10    22    1
    25    10    23    1
    26    14    24    1
    27    15    25    1
    28    16    26    1
