@<TRIPOS>MOLECULE
*****
 28 30 0 0 0
SMALL
GASTEIGER

@<TRIPOS>ATOM
      1 F           3.1319    2.3280    0.0962 F       1  UNL1        0.0000
      2 B           1.6887    2.0844    0.1443 B       1  UNL1        0.0000
      3 N           1.1371    1.4917   -1.1393 N.2     1  UNL1        1.0000
      4 C           1.4438    1.7392   -2.3561 C.2     1  UNL1        0.0000
      5 C           0.6837    0.9599   -3.3058 C.2     1  UNL1        0.0000
      6 C          -0.1536    0.1837   -2.5321 C.2     1  UNL1        0.0000
      7 C           0.1230    0.5030   -1.1613 C.2     1  UNL1        0.0000
      8 C          -0.3425   -0.0833   -0.0417 C.2     1  UNL1        0.0000
      9 N          -1.3077   -1.0331    0.0186 N.pl3   1  UNL1        0.0000
     10 C          -1.9616   -1.9672   -0.8801 C.3     1  UNL1        0.0000
     11 C          -2.7688   -2.8242   -0.0993 C.1     1  UNL1        0.0000
     12 C          -3.4339   -3.5451    0.5729 C.1     1  UNL1        0.0000
     13 F           1.0228    3.4165    0.2615 F       1  UNL1        0.0000
     14 N           1.2960    1.2319    1.2963 N.ar    1  UNL1        0.0000
     15 C           0.3214    0.3316    1.2402 C.ar    1  UNL1        0.0000
     16 C           0.1785   -0.3020    2.4988 C.ar    1  UNL1        0.0000
     17 C           1.1200    0.2629    3.2998 C.ar    1  UNL1        0.0000
     18 C           1.7980    1.1794    2.6182 C.ar    1  UNL1        0.0000
     19 H           2.2378    2.4961   -2.6161 H       1  UNL1        0.0000
     20 H           0.7175    0.9494   -4.3497 H       1  UNL1        0.0000
     21 H          -0.8664   -0.5251   -2.9280 H       1  UNL1        0.0000
     22 H          -1.7676   -1.1571    1.0400 H       1  UNL1        0.0000
     23 H          -1.0769   -2.6177   -1.2316 H       1  UNL1        0.0000
     24 H          -2.5058   -1.5507   -1.7147 H       1  UNL1        0.0000
     25 H          -4.1232   -4.2750    1.2829 H       1  UNL1        0.0000
     26 H          -0.5255   -1.0565    2.7366 H       1  UNL1        0.0000
     27 H           1.2924   -0.0526    4.3453 H       1  UNL1        0.0000
     28 H           2.6411    1.8318    2.9041 H       1  UNL1        0.0000
@<TRIPOS>UNITY_ATOM_ATTR
2 1
charge -1
3 1
charge 1
@<TRIPOS>BOND
     1     1     2    1
     2     2     3    1
     3     3     4    2
     4     4     5    1
     5     5     6    2
     6     6     7    1
     7     7     8    2
     8     8     9    1
     9     9    10    1
    10    10    11    1
    11    11    12    3
    12     2    13    1
    13     2    14    1
    14    14    15   ar
    15    15    16   ar
    16    16    17   ar
    17    17    18   ar
    18     7     3    1
    19    15     8    1
    20    18    14   ar
    21     4    19    1
    22     5    20    1
    23     6    21    1
    24     9    22    1
    25    10    23    1
    26    10    24    1
    27    12    25    1
    28    16    26    1
    29    17    27    1
    30    18    28    1
