@<TRIPOS>MOLECULE
*****
 40 47 0 0 0
SMALL
GASTEIGER

@<TRIPOS>ATOM
      1 SI          6.7697   -1.8686   -0.9565 Si      1  UNL1        0.0000
      2 C           5.1654   -2.7983   -0.4875 C.2     1  UNL1        0.0000
      3 C           4.1499   -1.9413   -0.2419 C.2     1  UNL1        0.0000
      4 C           4.4782   -0.5511   -0.3867 C.ar    1  UNL1        0.0000
      5 C           5.8203   -0.2564   -0.7552 C.ar    1  UNL1        0.0000
      6 C           6.1101    1.0677   -0.8657 C.ar    1  UNL1        0.0000
      7 S           4.6995    1.9939   -0.5111 S.2     1  UNL1        0.0000
      8 C           3.7208    0.5873   -0.2188 C.ar    1  UNL1        0.0000
      9 C           2.3063    0.7569    0.1184 C.ar    1  UNL1        0.0000
     10 C           1.3225    0.0728   -0.5836 C.ar    1  UNL1        0.0000
     11 C           0.0337    0.3263   -0.1431 C.ar    1  UNL1        0.0000
     12 O          -1.1007   -0.2265   -0.6730 O.2     1  UNL1        0.0000
     13 C          -2.1698    0.2695    0.0281 C.ar    1  UNL1        0.0000
     14 C          -1.6682    1.1238    0.9834 C.ar    1  UNL1        0.0000
     15 C          -0.2739    1.1863    0.9073 C.ar    1  UNL1        0.0000
     16 C           0.7781    1.8302    1.5537 C.ar    1  UNL1        0.0000
     17 N           2.0555    1.6049    1.1517 N.ar    1  UNL1        0.0000
     18 C          -2.5746    1.7818    1.8579 C.ar    1  UNL1        0.0000
     19 N          -2.1749    2.6170    2.8028 N.ar    1  UNL1        0.0000
     20 S          -3.6218    3.0844    3.5082 S.2     1  UNL1        0.0000
     21 N          -4.7109    2.2058    2.5875 N.ar    1  UNL1        0.0000
     22 C          -3.9948    1.5046    1.6822 C.ar    1  UNL1        0.0000
     23 C          -4.5121    0.6115    0.6829 C.ar    1  UNL1        0.0000
     24 C          -5.9120    0.3678    0.5446 C.ar    1  UNL1        0.0000
     25 C          -6.4458   -0.5004   -0.4230 C.ar    1  UNL1        0.0000
     26 C          -5.5188   -1.1428   -1.2795 C.ar    1  UNL1        0.0000
     27 N          -5.8374   -2.0021   -2.2588 N.ar    1  UNL1        0.0000
     28 S          -4.4084   -2.4676   -2.9611 S.2     1  UNL1        0.0000
     29 N          -3.3222   -1.6039   -2.0556 N.ar    1  UNL1        0.0000
     30 C          -4.0280   -0.9010   -1.1529 C.ar    1  UNL1        0.0000
     31 C          -3.5297   -0.0135   -0.1597 C.ar    1  UNL1        0.0000
     32 H           7.1634   -2.1682   -2.3558 H       1  UNL1        0.0000
     33 H           7.8267   -2.0857    0.0621 H       1  UNL1        0.0000
     34 H           5.1464   -3.8748   -0.4321 H       1  UNL1        0.0000
     35 H           3.1626   -2.2747    0.0566 H       1  UNL1        0.0000
     36 H           7.0399    1.5568   -1.1222 H       1  UNL1        0.0000
     37 H           1.5287   -0.5921   -1.4099 H       1  UNL1        0.0000
     38 H           0.6462    2.5192    2.3808 H       1  UNL1        0.0000
     39 H          -6.6080    0.8744    1.2165 H       1  UNL1        0.0000
     40 H          -7.5119   -0.6741   -0.5144 H       1  UNL1        0.0000
@<TRIPOS>BOND
     1     1     2    1
     2     2     3    2
     3     3     4    1
     4     4     5   ar
     5     5     6   ar
     6     6     7   ar
     7     7     8   ar
     8     8     9    1
     9     9    10   ar
    10    10    11   ar
    11    11    12   ar
    12    12    13   ar
    13    13    14   ar
    14    14    15   ar
    15    15    16   ar
    16    16    17   ar
    17    14    18   ar
    18    18    19   ar
    19    19    20   ar
    20    20    21   ar
    21    21    22   ar
    22    22    23   ar
    23    23    24   ar
    24    24    25   ar
    25    25    26   ar
    26    26    27   ar
    27    27    28   ar
    28    28    29   ar
    29    29    30   ar
    30    30    31   ar
    31     5     1    1
    32    17     9   ar
    33    22    18   ar
    34    31    23   ar
    35     8     4   ar
    36    15    11   ar
    37    30    26   ar
    38    31    13   ar
    39     1    32    1
    40     1    33    1
    41     2    34    1
    42     3    35    1
    43     6    36    1
    44    10    37    1
    45    16    38    1
    46    24    39    1
    47    25    40    1
