@<TRIPOS>MOLECULE
*****
 30 32 0 0 0
SMALL
GASTEIGER

@<TRIPOS>ATOM
      1 F          -3.7203   -0.6213    0.2993 F       1  UNL1        0.0000
      2 B          -2.4524   -0.6845   -0.4227 B       1  UNL1        0.0000
      3 N          -1.9390    0.7228   -0.5649 N.2     1  UNL1        1.0000
      4 C          -2.4849    1.7552   -1.1778 C.2     1  UNL1        0.0000
      5 C          -1.6127    2.9141   -1.0467 C.2     1  UNL1        0.0000
      6 C          -0.5530    2.5420   -0.3503 C.2     1  UNL1        0.0000
      7 C          -0.7120    1.1247   -0.0097 C.2     1  UNL1        0.0000
      8 C           0.0861    0.3217    0.6717 C.2     1  UNL1        0.0000
      9 N           1.3257    0.7127    1.2372 N.pl3   1  UNL1        0.0000
     10 C           2.6010    0.3120    0.6808 C.3     1  UNL1        0.0000
     11 C           2.8314    0.9672   -0.6513 C.2     1  UNL1        0.0000
     12 C           2.9932    0.1801   -1.7064 C.2     1  UNL1        0.0000
     13 F          -2.6443   -1.2499   -1.7531 F       1  UNL1        0.0000
     14 N          -1.4827   -1.5357    0.3631 N.ar    1  UNL1        0.0000
     15 C          -0.3329   -1.0646    0.8563 C.ar    1  UNL1        0.0000
     16 C           0.2765   -2.1405    1.5132 C.ar    1  UNL1        0.0000
     17 C          -0.5164   -3.2443    1.4052 C.ar    1  UNL1        0.0000
     18 C          -1.6161   -2.8435    0.6794 C.ar    1  UNL1        0.0000
     19 H          -3.4433    1.6913   -1.6873 H       1  UNL1        0.0000
     20 H          -1.8387    3.9000   -1.4692 H       1  UNL1        0.0000
     21 H           0.2892    3.1779   -0.0786 H       1  UNL1        0.0000
     22 H           1.3395    1.3127    2.0885 H       1  UNL1        0.0000
     23 H           3.4402    0.6276    1.3329 H       1  UNL1        0.0000
     24 H           2.6974   -0.7889    0.5890 H       1  UNL1        0.0000
     25 H           2.8655    2.0436   -0.7437 H       1  UNL1        0.0000
     26 H           2.9586   -0.8912   -1.5993 H       1  UNL1        0.0000
     27 H           3.1642    0.5591   -2.7072 H       1  UNL1        0.0000
     28 H           1.2212   -2.0905    2.0191 H       1  UNL1        0.0000
     29 H          -0.3056   -4.2168    1.8114 H       1  UNL1        0.0000
     30 H          -2.4358   -3.4930    0.4211 H       1  UNL1        0.0000
@<TRIPOS>UNITY_ATOM_ATTR
2 1
charge -1
3 1
charge 1
@<TRIPOS>BOND
     1     1     2    1
     2     2     3    1
     3     3     4    2
     4     4     5    1
     5     5     6    2
     6     6     7    1
     7     7     8    2
     8     8     9    1
     9     9    10    1
    10    10    11    1
    11    11    12    2
    12     2    13    1
    13     2    14    1
    14    14    15   ar
    15    15    16   ar
    16    16    17   ar
    17    17    18   ar
    18     7     3    1
    19    15     8    1
    20    18    14   ar
    21     4    19    1
    22     5    20    1
    23     6    21    1
    24     9    22    1
    25    10    23    1
    26    10    24    1
    27    11    25    1
    28    12    26    1
    29    12    27    1
    30    16    28    1
    31    17    29    1
    32    18    30    1
