@<TRIPOS>MOLECULE
*****
 29 31 0 0 0
SMALL
GASTEIGER

@<TRIPOS>ATOM
      1 F          -3.0660   -0.2823    1.7335 F       1  UNL1        0.0000
      2 B          -2.4164    0.0063    0.4438 B       1  UNL1        0.0000
      3 N          -1.6452   -1.2207    0.0224 N.ar    1  UNL1        0.0000
      4 C          -0.3192   -1.2534   -0.2286 C.ar    1  UNL1        0.0000
      5 C           0.0274   -2.5323   -0.5846 C.ar    1  UNL1        0.0000
      6 C          -1.1739   -3.2833   -0.5355 C.ar    1  UNL1        0.0000
      7 C          -2.1656   -2.4772   -0.1691 C.ar    1  UNL1        0.0000
      8 F          -3.5211    0.2618   -0.4958 F       1  UNL1        0.0000
      9 N          -1.5335    1.2370    0.5558 N.ar    1  UNL1        0.0000
     10 C          -0.2009    1.2405    0.3119 C.ar    1  UNL1        0.0000
     11 C           0.4807   -0.0136   -0.0958 C.2     1  UNL1        0.0000
     12 N           1.7379    0.0113   -0.3143 N.2     1  UNL1        1.0000
     13 C           2.6165    1.1643   -0.2157 C.3     1  UNL1        0.0000
     14 C           2.4490   -1.2155   -0.7065 C.3     1  UNL1        0.0000
     15 C           0.2849    2.5074    0.5063 C.ar    1  UNL1        0.0000
     16 C          -0.8091    3.3216    0.8894 C.ar    1  UNL1        0.0000
     17 C          -1.8760    2.4922    0.8996 C.ar    1  UNL1        0.0000
     18 H           0.9418   -2.9975   -0.8605 H       1  UNL1        0.0000
     19 H          -1.2451   -4.3275   -0.7610 H       1  UNL1        0.0000
     20 H          -3.2250   -2.7388   -0.0342 H       1  UNL1        0.0000
     21 H           3.6845    0.8000   -0.5071 H       1  UNL1        0.0000
     22 H           2.4430    1.9199   -0.9854 H       1  UNL1        0.0000
     23 H           2.7752    1.5264    0.8073 H       1  UNL1        0.0000
     24 H           2.4518   -1.9278    0.1067 H       1  UNL1        0.0000
     25 H           3.5574   -0.8746   -0.7846 H       1  UNL1        0.0000
     26 H           2.1421   -1.5014   -1.7033 H       1  UNL1        0.0000
     27 H           1.2475    2.9655    0.4320 H       1  UNL1        0.0000
     28 H          -0.7496    4.3926    1.1182 H       1  UNL1        0.0000
     29 H          -2.8934    2.7988    1.1550 H       1  UNL1        0.0000
@<TRIPOS>UNITY_ATOM_ATTR
2 1
charge -1
12 1
charge 1
@<TRIPOS>BOND
     1     1     2    1
     2     2     3    1
     3     3     4   ar
     4     4     5   ar
     5     5     6   ar
     6     6     7   ar
     7     2     8    1
     8     2     9    1
     9     9    10   ar
    10    10    11    1
    11    11    12    2
    12    12    13    1
    13    12    14    1
    14    10    15   ar
    15    15    16   ar
    16    16    17   ar
    17     7     3   ar
    18    11     4    1
    19    17     9   ar
    20     5    18    1
    21     6    19    1
    22     7    20    1
    23    13    21    1
    24    13    22    1
    25    13    23    1
    26    14    24    1
    27    14    25    1
    28    14    26    1
    29    15    27    1
    30    16    28    1
    31    17    29    1
