@<TRIPOS>MOLECULE
*****
 26 28 0 0 0
SMALL
GASTEIGER

@<TRIPOS>ATOM
      1 F          -0.3730   -2.8579    1.3847 F       1  UNL1        0.0000
      2 B          -0.3416   -2.0948    0.1115 B       1  UNL1        0.0000
      3 N           0.9776   -1.3794   -0.0210 N.ar    1  UNL1        0.0000
      4 C           1.1319   -0.0542   -0.0899 C.ar    1  UNL1        0.0000
      5 C           2.4722    0.2513   -0.2064 C.ar    1  UNL1        0.0000
      6 C           3.1542   -0.9542   -0.2072 C.ar    1  UNL1        0.0000
      7 C           2.2471   -1.9395   -0.0949 C.ar    1  UNL1        0.0000
      8 F          -0.4935   -3.0679   -0.9810 F       1  UNL1        0.0000
      9 N          -1.5120   -1.1439    0.1600 N.ar    1  UNL1        0.0000
     10 C          -1.3686    0.1691    0.0925 C.ar    1  UNL1        0.0000
     11 C          -0.0209    0.8122   -0.0386 C.2     1  UNL1        0.0000
     12 N          -0.0247    2.0787   -0.0921 N.2     1  UNL1        1.0000
     13 C           1.1528    2.8943   -0.2165 C.3     1  UNL1        0.0000
     14 C          -2.6375    0.7178    0.1661 C.ar    1  UNL1        0.0000
     15 C          -3.5740   -0.2786    0.2808 C.ar    1  UNL1        0.0000
     16 C          -2.8650   -1.4441    0.2766 C.ar    1  UNL1        0.0000
     17 H           2.9379    1.1984   -0.2832 H       1  UNL1        0.0000
     18 H           4.2242   -1.0980   -0.2836 H       1  UNL1        0.0000
     19 H           2.3781   -3.0244   -0.0583 H       1  UNL1        0.0000
     20 H          -0.9742    2.5680   -0.0408 H       1  UNL1        0.0000
     21 H           1.6366    2.7215   -1.1760 H       1  UNL1        0.0000
     22 H           0.7796    3.9806   -0.1859 H       1  UNL1        0.0000
     23 H           1.8139    2.8251    0.6590 H       1  UNL1        0.0000
     24 H          -2.8337    1.7728    0.1358 H       1  UNL1        0.0000
     25 H          -4.6566   -0.1941    0.3601 H       1  UNL1        0.0000
     26 H          -3.2307   -2.4592    0.3483 H       1  UNL1        0.0000
@<TRIPOS>UNITY_ATOM_ATTR
2 1
charge -1
12 1
charge 1
@<TRIPOS>BOND
     1     1     2    1
     2     2     3    1
     3     3     4   ar
     4     4     5   ar
     5     5     6   ar
     6     6     7   ar
     7     2     8    1
     8     2     9    1
     9     9    10   ar
    10    10    11    1
    11    11    12    2
    12    12    13    1
    13    10    14   ar
    14    14    15   ar
    15    15    16   ar
    16     7     3   ar
    17    11     4    1
    18    16     9   ar
    19     5    17    1
    20     6    18    1
    21     7    19    1
    22    12    20    1
    23    13    21    1
    24    13    22    1
    25    13    23    1
    26    14    24    1
    27    15    25    1
    28    16    26    1
