@<TRIPOS>MOLECULE
*****
 28 30 0 0 0
SMALL
GASTEIGER

@<TRIPOS>ATOM
      1 F          -3.5797    0.4277    0.2489 F       1  UNL1        0.0000
      2 B          -2.4418    0.2871   -0.6840 B       1  UNL1        0.0000
      3 N          -1.4712    1.4045   -0.3731 N.ar    1  UNL1        0.0000
      4 C          -0.1709    1.1834   -0.0174 C.ar    1  UNL1        0.0000
      5 C           0.3724    2.4411    0.1789 C.ar    1  UNL1        0.0000
      6 C          -0.6069    3.4051   -0.0608 C.ar    1  UNL1        0.0000
      7 C          -1.7356    2.7312   -0.4001 C.ar    1  UNL1        0.0000
      8 F          -3.0343    0.5184   -2.0058 F       1  UNL1        0.0000
      9 N          -1.8552   -1.1006   -0.5703 N.ar    1  UNL1        0.0000
     10 C          -0.5814   -1.2701   -0.2201 C.ar    1  UNL1        0.0000
     11 C           0.3488   -0.1626    0.0798 C.2     1  UNL1        0.0000
     12 N           1.5380   -0.4324    0.4040 N.2     1  UNL1        1.0000
     13 C           2.5891    0.4762    0.7323 C.3     1  UNL1        0.0000
     14 C           3.8045   -0.3331    1.1000 C.1     1  UNL1        0.0000
     15 C           4.7823   -0.9776    1.3739 C.1     1  UNL1        0.0000
     16 C          -0.3565   -2.6521   -0.2071 C.ar    1  UNL1        0.0000
     17 C          -1.5286   -3.2668   -0.5572 C.ar    1  UNL1        0.0000
     18 C          -2.4669   -2.2926   -0.7845 C.ar    1  UNL1        0.0000
     19 H           1.3839    2.6723    0.4695 H       1  UNL1        0.0000
     20 H          -0.4441    4.4830    0.0228 H       1  UNL1        0.0000
     21 H          -2.6928    3.1997   -0.6511 H       1  UNL1        0.0000
     22 H           1.8153   -1.4833    0.4429 H       1  UNL1        0.0000
     23 H           2.9032    1.1178   -0.1116 H       1  UNL1        0.0000
     24 H           2.3808    1.0443    1.6562 H       1  UNL1        0.0000
     25 H           5.6425   -1.5456    1.6108 H       1  UNL1        0.0000
     26 H           0.5968   -3.1149    0.0428 H       1  UNL1        0.0000
     27 H          -1.6811   -4.3493   -0.6390 H       1  UNL1        0.0000
     28 H          -3.5104   -2.4108   -1.0807 H       1  UNL1        0.0000
@<TRIPOS>UNITY_ATOM_ATTR
2 1
charge -1
12 1
charge 1
@<TRIPOS>BOND
     1     1     2    1
     2     2     3    1
     3     3     4   ar
     4     4     5   ar
     5     5     6   ar
     6     6     7   ar
     7     2     8    1
     8     2     9    1
     9     9    10   ar
    10    10    11    1
    11    11    12    2
    12    12    13    1
    13    13    14    1
    14    14    15    3
    15    10    16   ar
    16    16    17   ar
    17    17    18   ar
    18     7     3   ar
    19    11     4    1
    20    18     9   ar
    21     5    19    1
    22     6    20    1
    23     7    21    1
    24    12    22    1
    25    13    23    1
    26    13    24    1
    27    15    25    1
    28    16    26    1
    29    17    27    1
    30    18    28    1
