@<TRIPOS>MOLECULE
*****
 30 32 0 0 0
SMALL
GASTEIGER

@<TRIPOS>ATOM
      1 F          -3.4988    0.8497    1.2501 F       1  UNL1        0.0000
      2 B          -2.6366    0.7449    0.0485 B       1  UNL1        0.0000
      3 N          -1.3838    1.5463    0.3269 N.ar    1  UNL1        0.0000
      4 C          -0.1641    1.0333    0.3996 C.ar    1  UNL1        0.0000
      5 C           0.7225    2.0403    0.6633 C.ar    1  UNL1        0.0000
      6 C           0.0126    3.2391    0.7588 C.ar    1  UNL1        0.0000
      7 C          -1.2828    2.9065    0.5474 C.ar    1  UNL1        0.0000
      8 F          -3.4039    1.3367   -1.0393 F       1  UNL1        0.0000
      9 N          -2.3764   -0.7260   -0.1573 N.ar    1  UNL1        0.0000
     10 C          -1.1565   -1.2264   -0.0822 C.ar    1  UNL1        0.0000
     11 C           0.0539   -0.3930    0.2025 C.2     1  UNL1        0.0000
     12 N           1.1445   -1.0149    0.2539 N.2     1  UNL1        1.0000
     13 C           2.4482   -0.4866    0.5191 C.3     1  UNL1        0.0000
     14 C           3.1175    0.1121   -0.6529 C.2     1  UNL1        0.0000
     15 C           4.2865   -0.3238   -1.1330 C.2     1  UNL1        0.0000
     16 C          -1.2851   -2.6028   -0.3193 C.ar    1  UNL1        0.0000
     17 C          -2.6085   -2.9175   -0.5386 C.ar    1  UNL1        0.0000
     18 C          -3.2865   -1.7363   -0.4355 C.ar    1  UNL1        0.0000
     19 H           1.7645    1.9906    0.7811 H       1  UNL1        0.0000
     20 H           0.4373    4.2125    0.9602 H       1  UNL1        0.0000
     21 H          -2.1330    3.5693    0.5435 H       1  UNL1        0.0000
     22 H           1.1345   -2.0900    0.0757 H       1  UNL1        0.0000
     23 H           3.1374   -1.3825    0.8196 H       1  UNL1        0.0000
     24 H           2.5565    0.1435    1.4084 H       1  UNL1        0.0000
     25 H           2.6646    0.9512   -1.1783 H       1  UNL1        0.0000
     26 H           4.7879   -1.1538   -0.6586 H       1  UNL1        0.0000
     27 H           4.7670    0.1202   -1.9893 H       1  UNL1        0.0000
     28 H          -0.4358   -3.2815   -0.3199 H       1  UNL1        0.0000
     29 H          -3.0252   -3.8881   -0.7475 H       1  UNL1        0.0000
     30 H          -4.3584   -1.5730   -0.5461 H       1  UNL1        0.0000
@<TRIPOS>UNITY_ATOM_ATTR
2 1
charge -1
12 1
charge 1
@<TRIPOS>BOND
     1     1     2    1
     2     2     3    1
     3     3     4   ar
     4     4     5   ar
     5     5     6   ar
     6     6     7   ar
     7     2     8    1
     8     2     9    1
     9     9    10   ar
    10    10    11    1
    11    11    12    2
    12    12    13    1
    13    13    14    1
    14    14    15    2
    15    10    16   ar
    16    16    17   ar
    17    17    18   ar
    18     7     3   ar
    19    11     4    1
    20    18     9   ar
    21     5    19    1
    22     6    20    1
    23     7    21    1
    24    12    22    1
    25    13    23    1
    26    13    24    1
    27    14    25    1
    28    15    26    1
    29    15    27    1
    30    16    28    1
    31    17    29    1
    32    18    30    1
