@<TRIPOS>MOLECULE
*****
 23 25 0 0 0
SMALL
GASTEIGER

@<TRIPOS>ATOM
      1 F           0.6880   -2.6004    0.9721 F       1  UNL1        0.0000
      2 B           0.4165   -1.6249   -0.0851 B       1  UNL1        0.0000
      3 N          -1.0093   -1.1432    0.0100 N.ar    1  UNL1        0.0000
      4 C          -1.3424    0.1388    0.0830 C.ar    1  UNL1        0.0000
      5 C          -2.7297    0.2454    0.1599 C.ar    1  UNL1        0.0000
      6 C          -3.2201   -1.0290    0.1300 C.ar    1  UNL1        0.0000
      7 C          -2.1668   -1.9038    0.0372 C.ar    1  UNL1        0.0000
      8 F           0.5175   -2.3155   -1.3953 F       1  UNL1        0.0000
      9 N           1.4358   -0.5105   -0.0900 N.ar    1  UNL1        0.0000
     10 C           1.0940    0.7790   -0.0161 C.ar    1  UNL1        0.0000
     11 C          -0.3095    1.1640    0.0737 C.2     1  UNL1        0.0000
     12 N          -0.6063    2.4081    0.1432 N.2     1  UNL1        1.0000
     13 C           2.2533    1.5360   -0.0437 C.ar    1  UNL1        0.0000
     14 C           3.3396    0.6911   -0.1370 C.ar    1  UNL1        0.0000
     15 C           2.8115   -0.5771   -0.1646 C.ar    1  UNL1        0.0000
     16 H          -3.2387    1.1833    0.2271 H       1  UNL1        0.0000
     17 H          -4.2581   -1.3507    0.1701 H       1  UNL1        0.0000
     18 H          -2.1914   -2.9837   -0.0085 H       1  UNL1        0.0000
     19 H          -1.6129    2.6676    0.2070 H       1  UNL1        0.0000
     20 H           0.0711    3.1820    0.1416 H       1  UNL1        0.0000
     21 H           2.3040    2.6113    0.0004 H       1  UNL1        0.0000
     22 H           4.3920    0.9358   -0.1813 H       1  UNL1        0.0000
     23 H           3.3619   -1.5037   -0.2335 H       1  UNL1        0.0000
@<TRIPOS>UNITY_ATOM_ATTR
2 1
charge -1
12 1
charge 1
@<TRIPOS>BOND
     1     1     2    1
     2     2     3    1
     3     3     4   ar
     4     4     5   ar
     5     5     6   ar
     6     6     7   ar
     7     2     8    1
     8     2     9    1
     9     9    10   ar
    10    10    11    1
    11    11    12    2
    12    10    13   ar
    13    13    14   ar
    14    14    15   ar
    15     7     3   ar
    16    11     4    1
    17    15     9   ar
    18     5    16    1
    19     6    17    1
    20     7    18    1
    21    12    19    1
    22    12    20    1
    23    13    21    1
    24    14    22    1
    25    15    23    1
