@<TRIPOS>MOLECULE
*****
 34 37 0 0 0
SMALL
GASTEIGER

@<TRIPOS>ATOM
      1 F           4.2357    1.1189   -1.0782 F       1  UNL1        0.0000
      2 B           3.4860   -0.1450   -0.9081 B       1  UNL1        0.0000
      3 N           2.3555   -0.1370   -1.9096 N.2     1  UNL1        1.0000
      4 C           2.4464   -0.1777   -3.2183 C.2     1  UNL1        0.0000
      5 C           1.0939   -0.1492   -3.7553 C.2     1  UNL1        0.0000
      6 C           0.2120   -0.0919   -2.7653 C.2     1  UNL1        0.0000
      7 C           0.9919   -0.0815   -1.5382 C.2     1  UNL1        0.0000
      8 C           0.5967   -0.0439   -0.2733 C.2     1  UNL1        0.0000
      9 C          -0.8262    0.0151    0.0689 C.ar    1  UNL1        0.0000
     10 C          -1.6750    0.9148   -0.5350 C.ar    1  UNL1        0.0000
     11 C          -3.0249    1.0035   -0.2752 C.ar    1  UNL1        0.0000
     12 C          -3.5714    0.1343    0.6537 C.ar    1  UNL1        0.0000
     13 C          -5.0160    0.2537    0.9081 C.3     1  UNL1        0.0000
     14 C          -2.7558   -0.7823    1.2818 C.ar    1  UNL1        0.0000
     15 C          -1.4073   -0.8431    0.9962 C.ar    1  UNL1        0.0000
     16 C           1.6224   -0.0507    0.7614 C.ar    1  UNL1        0.0000
     17 C           1.4216   -0.0072    2.1492 C.ar    1  UNL1        0.0000
     18 C           2.6962   -0.0270    2.7004 C.ar    1  UNL1        0.0000
     19 C           3.6260   -0.0804    1.6881 C.ar    1  UNL1        0.0000
     20 N           2.9312   -0.0937    0.5041 N.ar    1  UNL1        0.0000
     21 F           4.3763   -1.2820   -1.0861 F       1  UNL1        0.0000
     22 H           3.3301   -0.2244   -3.8387 H       1  UNL1        0.0000
     23 H           0.7768   -0.1688   -4.7943 H       1  UNL1        0.0000
     24 H          -0.8639   -0.0648   -2.8453 H       1  UNL1        0.0000
     25 H          -1.2572    1.6028   -1.2496 H       1  UNL1        0.0000
     26 H          -3.6534    1.7452   -0.7917 H       1  UNL1        0.0000
     27 H          -5.3586    1.2864    1.0690 H       1  UNL1        0.0000
     28 H          -5.5457   -0.1280    0.0011 H       1  UNL1        0.0000
     29 H          -5.3543   -0.3969    1.7463 H       1  UNL1        0.0000
     30 H          -3.2121   -1.4436    1.9973 H       1  UNL1        0.0000
     31 H          -0.7713   -1.5804    1.4954 H       1  UNL1        0.0000
     32 H           0.4810    0.0376    2.6684 H       1  UNL1        0.0000
     33 H           2.9092   -0.0042    3.7430 H       1  UNL1        0.0000
     34 H           4.7041   -0.1086    1.7584 H       1  UNL1        0.0000
@<TRIPOS>UNITY_ATOM_ATTR
2 1
charge -1
3 1
charge 1
@<TRIPOS>BOND
     1     1     2    1
     2     2     3    1
     3     3     4    2
     4     4     5    1
     5     5     6    2
     6     6     7    1
     7     7     8    2
     8     8     9    1
     9     9    10   ar
    10    10    11   ar
    11    11    12   ar
    12    12    13    1
    13    12    14   ar
    14    14    15   ar
    15     8    16    1
    16    16    17   ar
    17    17    18   ar
    18    18    19   ar
    19    19    20   ar
    20     2    21    1
    21    20     2    1
    22     7     3    1
    23    15     9   ar
    24    20    16   ar
    25     4    22    1
    26     5    23    1
    27     6    24    1
    28    10    25    1
    29    11    26    1
    30    13    27    1
    31    13    28    1
    32    13    29    1
    33    14    30    1
    34    15    31    1
    35    17    32    1
    36    18    33    1
    37    19    34    1
