@<TRIPOS>MOLECULE
*****
 35 38 0 0 0
SMALL
GASTEIGER

@<TRIPOS>ATOM
      1 F          -0.6011   -1.6141    1.4538 F       1  UNL1        0.0000
      2 B          -1.0704   -0.9830    0.2235 B       1  UNL1        0.0000
      3 F          -0.7888   -1.9122   -0.8846 F       1  UNL1        0.0000
      4 N          -2.6125   -1.0367    0.3516 N.2     1  UNL1        1.0000
      5 C          -3.4225    0.0984    0.2612 C.2     1  UNL1        0.0000
      6 C          -2.8644    1.2774    0.0567 C.2     1  UNL1        0.0000
      7 C          -1.4245    1.4383   -0.0791 C.ar    1  UNL1        0.0000
      8 N          -0.5479    0.4031   -0.0078 N.ar    1  UNL1        0.0000
      9 C           0.7007    0.8517   -0.1682 C.ar    1  UNL1        0.0000
     10 C           0.5743    2.2430   -0.3476 C.ar    1  UNL1        0.0000
     11 C          -0.7387    2.6218   -0.2948 C.ar    1  UNL1        0.0000
     12 C          -1.3048    3.9874   -0.4358 C.3     1  UNL1        0.0000
     13 C           2.0018    0.2197   -0.1870 C.2     1  UNL1        0.0000
     14 C           2.3107   -1.0366   -0.0452 C.2     1  UNL1        0.0000
     15 C           3.7096   -1.5179   -0.0915 C.ar    1  UNL1        0.0000
     16 C           4.8654   -0.8162   -0.2752 C.ar    1  UNL1        0.0000
     17 C           5.8778   -1.7653   -0.2293 C.ar    1  UNL1        0.0000
     18 O           5.3791   -2.9599   -0.0321 O.2     1  UNL1        0.0000
     19 C           4.0792   -2.8330    0.0533 C.ar    1  UNL1        0.0000
     20 C          -4.8304   -0.2932    0.4247 C.2     1  UNL1        0.0000
     21 C          -4.7782   -1.6018    0.5980 C.2     1  UNL1        0.0000
     22 C          -3.4098   -2.0430    0.5505 C.2     1  UNL1        0.0000
     23 H          -3.5371    2.1261   -0.0054 H       1  UNL1        0.0000
     24 H           1.3915    2.9581   -0.5099 H       1  UNL1        0.0000
     25 H          -1.5998    4.4018    0.5558 H       1  UNL1        0.0000
     26 H          -2.1460    3.9459   -1.1340 H       1  UNL1        0.0000
     27 H          -0.5399    4.6644   -0.8431 H       1  UNL1        0.0000
     28 H           2.8993    0.8632   -0.3425 H       1  UNL1        0.0000
     29 H           1.5492   -1.7416    0.1074 H       1  UNL1        0.0000
     30 H           4.9189    0.2411   -0.4192 H       1  UNL1        0.0000
     31 H           6.9173   -1.5571   -0.3386 H       1  UNL1        0.0000
     32 H           3.4135   -3.6592    0.2149 H       1  UNL1        0.0000
     33 H          -5.6987    0.3405    0.4069 H       1  UNL1        0.0000
     34 H          -5.6335   -2.2438    0.7521 H       1  UNL1        0.0000
     35 H          -3.0394   -3.0672    0.6603 H       1  UNL1        0.0000
@<TRIPOS>UNITY_ATOM_ATTR
2 1
charge -1
4 1
charge 1
@<TRIPOS>BOND
     1     1     2    1
     2     2     3    1
     3     2     4    1
     4     4     5    1
     5     5     6    2
     6     6     7    1
     7     7     8   ar
     8     8     9   ar
     9     9    10   ar
    10    10    11   ar
    11    11    12    1
    12     9    13    1
    13    13    14    2
    14    14    15    1
    15    15    16   ar
    16    16    17   ar
    17    17    18   ar
    18    18    19   ar
    19     5    20    1
    20    20    21    2
    21    21    22    1
    22     8     2    1
    23    19    15   ar
    24     4    22    2
    25    11     7   ar
    26     6    23    1
    27    10    24    1
    28    12    25    1
    29    12    26    1
    30    12    27    1
    31    13    28    1
    32    14    29    1
    33    16    30    1
    34    17    31    1
    35    19    32    1
    36    20    33    1
    37    21    34    1
    38    22    35    1
