@<TRIPOS>MOLECULE
*****
 35 38 0 0 0
SMALL
GASTEIGER

@<TRIPOS>ATOM
      1 F           0.5205    1.3120   -1.9801 F       1  UNL1        0.0000
      2 B           0.8761    1.2276   -0.5583 B       1  UNL1        0.0000
      3 F           0.1316    2.2433    0.2326 F       1  UNL1        0.0000
      4 N           2.3132    1.7270   -0.4984 N.2     1  UNL1        1.0000
      5 C           3.3550    0.9588    0.0137 C.2     1  UNL1        0.0000
      6 C           3.1079   -0.2477    0.4703 C.2     1  UNL1        0.0000
      7 C           1.7827   -0.8483    0.4762 C.ar    1  UNL1        0.0000
      8 N           0.7118   -0.1526   -0.0106 N.ar    1  UNL1        0.0000
      9 C          -0.3866   -0.9199    0.1078 C.ar    1  UNL1        0.0000
     10 C           0.0423   -2.1285    0.6904 C.ar    1  UNL1        0.0000
     11 C           1.3710   -2.1026    0.9236 C.ar    1  UNL1        0.0000
     12 C           2.1971   -3.1742    1.5220 C.3     1  UNL1        0.0000
     13 C          -1.7693   -0.7325   -0.2207 C.2     1  UNL1        0.0000
     14 C          -2.3572    0.3004   -0.7482 C.2     1  UNL1        0.0000
     15 C          -3.8209    0.3100   -1.0193 C.ar    1  UNL1        0.0000
     16 O          -4.4883    1.3015   -1.5444 O.2     1  UNL1        0.0000
     17 C          -5.7565    1.0252   -1.6636 C.ar    1  UNL1        0.0000
     18 C          -5.9574   -0.2534   -1.1803 C.ar    1  UNL1        0.0000
     19 C          -4.7174   -0.6886   -0.7769 C.ar    1  UNL1        0.0000
     20 C           4.6167    1.7381   -0.0753 C.2     1  UNL1        0.0000
     21 C           4.2603    2.8828   -0.6163 C.2     1  UNL1        0.0000
     22 C           2.8330    2.8749   -0.8781 C.2     1  UNL1        0.0000
     23 H           3.9290   -0.8428    0.8694 H       1  UNL1        0.0000
     24 H          -0.5772   -2.9980    0.9393 H       1  UNL1        0.0000
     25 H           3.0451   -2.7576    2.1067 H       1  UNL1        0.0000
     26 H           1.5410   -3.8304    2.1314 H       1  UNL1        0.0000
     27 H           2.6225   -3.8528    0.7265 H       1  UNL1        0.0000
     28 H          -2.4935   -1.5675   -0.0137 H       1  UNL1        0.0000
     29 H          -1.8074    1.1558   -0.9945 H       1  UNL1        0.0000
     30 H          -6.4778    1.7167   -2.0766 H       1  UNL1        0.0000
     31 H          -6.9197   -0.7412   -1.1576 H       1  UNL1        0.0000
     32 H          -4.5043   -1.6532   -0.3457 H       1  UNL1        0.0000
     33 H           5.5619    1.3632    0.2556 H       1  UNL1        0.0000
     34 H           4.9720    3.6904   -0.8191 H       1  UNL1        0.0000
     35 H           2.2429    3.6640   -1.3150 H       1  UNL1        0.0000
@<TRIPOS>UNITY_ATOM_ATTR
2 1
charge -1
4 1
charge 1
@<TRIPOS>BOND
     1     1     2    1
     2     2     3    1
     3     2     4    1
     4     4     5    1
     5     5     6    2
     6     6     7    1
     7     7     8   ar
     8     8     9   ar
     9     9    10   ar
    10    10    11   ar
    11    11    12    1
    12     9    13    1
    13    13    14    2
    14    14    15    1
    15    15    16   ar
    16    16    17   ar
    17    17    18   ar
    18    18    19   ar
    19     5    20    1
    20    20    21    2
    21    21    22    1
    22     8     2    1
    23    19    15   ar
    24     4    22    2
    25    11     7   ar
    26     6    23    1
    27    10    24    1
    28    12    25    1
    29    12    26    1
    30    12    27    1
    31    13    28    1
    32    14    29    1
    33    17    30    1
    34    18    31    1
    35    19    32    1
    36    20    33    1
    37    21    34    1
    38    22    35    1
