@<TRIPOS>MOLECULE
*****
 31 34 0 0 0
SMALL
GASTEIGER

@<TRIPOS>ATOM
      1 F          -3.9000    0.6434    0.8304 F       1  UNL1        0.0000
      2 B          -2.9691   -0.1025    0.0017 B       1  UNL1        0.0000
      3 F          -3.8227   -0.8632   -0.9346 F       1  UNL1        0.0000
      4 N          -2.1397    0.8762   -0.7900 N.2     1  UNL1        1.0000
      5 C          -2.5085    1.8292   -1.5753 C.2     1  UNL1        0.0000
      6 C          -1.3496    2.5150   -2.1240 C.2     1  UNL1        0.0000
      7 C          -0.2761    1.9406   -1.6418 C.2     1  UNL1        0.0000
      8 C          -0.7231    0.8543   -0.7565 C.2     1  UNL1        0.0000
      9 C          -0.0625   -0.0350   -0.0273 C.2     1  UNL1        0.0000
     10 C           1.3865    0.0067   -0.0420 C.ar    1  UNL1        0.0000
     11 C           2.1989   -1.0911   -0.2503 C.ar    1  UNL1        0.0000
     12 C           3.5596   -0.9803   -0.2341 C.ar    1  UNL1        0.0000
     13 C           4.1432    0.2371   -0.0081 C.ar    1  UNL1        0.0000
     14 C           3.3794    1.3676    0.2065 C.ar    1  UNL1        0.0000
     15 C           2.0093    1.2406    0.1878 C.ar    1  UNL1        0.0000
     16 C          -0.7354   -1.0294    0.7927 C.ar    1  UNL1        0.0000
     17 C          -0.2999   -2.0293    1.6376 C.ar    1  UNL1        0.0000
     18 C          -1.3934   -2.6892    2.1997 C.ar    1  UNL1        0.0000
     19 C          -2.4846   -2.0451    1.6574 C.ar    1  UNL1        0.0000
     20 N          -2.1027   -1.0546    0.8173 N.ar    1  UNL1        0.0000
     21 H          -3.5256    2.1391   -1.8396 H       1  UNL1        0.0000
     22 H          -1.3184    3.3488   -2.8076 H       1  UNL1        0.0000
     23 H           0.7520    2.2255   -1.8749 H       1  UNL1        0.0000
     24 H           1.7202   -2.0520   -0.4298 H       1  UNL1        0.0000
     25 H           4.1539   -1.8676   -0.4020 H       1  UNL1        0.0000
     26 H           5.2156    0.3317    0.0058 H       1  UNL1        0.0000
     27 H           3.8364    2.3085    0.3829 H       1  UNL1        0.0000
     28 H           1.3804    2.1035    0.3684 H       1  UNL1        0.0000
     29 H           0.7429   -2.2822    1.8469 H       1  UNL1        0.0000
     30 H          -1.3660   -3.5100    2.8961 H       1  UNL1        0.0000
     31 H          -3.5010   -2.3361    1.9068 H       1  UNL1        0.0000
@<TRIPOS>UNITY_ATOM_ATTR
2 1
charge -1
4 1
charge 1
@<TRIPOS>BOND
     1     1     2    1
     2     2     3    1
     3     2     4    1
     4     4     5    2
     5     5     6    1
     6     6     7    2
     7     7     8    1
     8     8     9    2
     9     9    10    1
    10    10    11   ar
    11    11    12   ar
    12    12    13   ar
    13    13    14   ar
    14    14    15   ar
    15     9    16    1
    16    16    17   ar
    17    17    18   ar
    18    18    19   ar
    19    19    20   ar
    20    20     2    1
    21     8     4    1
    22    15    10   ar
    23    20    16   ar
    24     5    21    1
    25     6    22    1
    26     7    23    1
    27    11    24    1
    28    12    25    1
    29    13    26    1
    30    14    27    1
    31    15    28    1
    32    17    29    1
    33    18    30    1
    34    19    31    1
