@<TRIPOS>MOLECULE
*****
 40 47 0 0 0
SMALL
GASTEIGER

@<TRIPOS>ATOM
      1 SI         -7.0685    0.5236    0.5514 Si      1  UNL1        0.0000
      2 C          -5.8270    0.6195    2.0011 C.2     1  UNL1        0.0000
      3 C          -4.5750    0.3064    1.6003 C.2     1  UNL1        0.0000
      4 C          -4.4457   -0.0199    0.2090 C.ar    1  UNL1        0.0000
      5 C          -5.6366    0.0303   -0.5660 C.ar    1  UNL1        0.0000
      6 C          -5.4819   -0.2759   -1.8820 C.ar    1  UNL1        0.0000
      7 S          -3.8242   -0.6354   -2.1943 S.2     1  UNL1        0.0000
      8 C          -3.3505   -0.3749   -0.5440 C.ar    1  UNL1        0.0000
      9 C          -1.9513   -0.5481   -0.1752 C.ar    1  UNL1        0.0000
     10 C          -0.9238    0.2426   -0.7348 C.ar    1  UNL1        0.0000
     11 C           0.3906    0.0123   -0.3203 C.ar    1  UNL1        0.0000
     12 O           1.4981    0.6854   -0.7568 O.2     1  UNL1        0.0000
     13 C           2.5785    0.1515   -0.1033 C.ar    1  UNL1        0.0000
     14 C           2.1773   -0.8697    0.7613 C.ar    1  UNL1        0.0000
     15 N           3.0462   -1.5681    1.5326 N.ar    1  UNL1        0.0000
     16 C           4.3451   -1.2043    1.4041 C.ar    1  UNL1        0.0000
     17 C           4.8552   -0.2012    0.5724 C.ar    1  UNL1        0.0000
     18 C           6.2458    0.0953    0.5197 C.ar    1  UNL1        0.0000
     19 C           6.8007    1.0960   -0.3023 C.ar    1  UNL1        0.0000
     20 C           5.8944    1.8272   -1.1070 C.ar    1  UNL1        0.0000
     21 N           6.2250    2.8150   -1.9518 N.ar    1  UNL1        0.0000
     22 S           4.8081    3.3337   -2.6438 S.2     1  UNL1        0.0000
     23 N           3.7154    2.3310   -1.9027 N.ar    1  UNL1        0.0000
     24 C           4.4117    1.5353   -1.0728 C.ar    1  UNL1        0.0000
     25 C           3.9170    0.5126   -0.2219 C.ar    1  UNL1        0.0000
     26 C           0.7940   -0.9279    0.5975 C.ar    1  UNL1        0.0000
     27 C          -0.1938   -1.7565    1.1963 C.ar    1  UNL1        0.0000
     28 N           0.0849   -2.6907    2.0900 N.ar    1  UNL1        0.0000
     29 S          -1.4204   -3.3364    2.4294 S.2     1  UNL1        0.0000
     30 N          -2.3872   -2.4017    1.4362 N.ar    1  UNL1        0.0000
     31 C          -1.5791   -1.5386    0.7829 C.ar    1  UNL1        0.0000
     32 H          -7.6355    1.8616    0.2488 H       1  UNL1        0.0000
     33 H          -8.0675   -0.5516    0.7715 H       1  UNL1        0.0000
     34 H          -6.1519    0.8881    2.9932 H       1  UNL1        0.0000
     35 H          -3.7275    0.2925    2.2759 H       1  UNL1        0.0000
     36 H          -6.2144   -0.3142   -2.6768 H       1  UNL1        0.0000
     37 H          -1.1398    1.0167   -1.4653 H       1  UNL1        0.0000
     38 H           5.0151   -1.7861    2.0368 H       1  UNL1        0.0000
     39 H           6.9340   -0.4764    1.1457 H       1  UNL1        0.0000
     40 H           7.8649    1.3011   -0.3229 H       1  UNL1        0.0000
@<TRIPOS>BOND
     1     1     2    1
     2     2     3    2
     3     3     4    1
     4     4     5   ar
     5     5     6   ar
     6     6     7   ar
     7     7     8   ar
     8     8     9    1
     9     9    10   ar
    10    10    11   ar
    11    11    12   ar
    12    12    13   ar
    13    13    14   ar
    14    14    15   ar
    15    15    16   ar
    16    16    17   ar
    17    17    18   ar
    18    18    19   ar
    19    19    20   ar
    20    20    21   ar
    21    21    22   ar
    22    22    23   ar
    23    23    24   ar
    24    24    25   ar
    25    14    26   ar
    26    26    27   ar
    27    27    28   ar
    28    28    29   ar
    29    29    30   ar
    30    30    31   ar
    31     5     1    1
    32    31     9   ar
    33     8     4   ar
    34    26    11   ar
    35    31    27   ar
    36    25    13   ar
    37    25    17   ar
    38    24    20   ar
    39     1    32    1
    40     1    33    1
    41     2    34    1
    42     3    35    1
    43     6    36    1
    44    10    37    1
    45    16    38    1
    46    18    39    1
    47    19    40    1
