@<TRIPOS>MOLECULE
*****
 29 31 0 0 0
SMALL
GASTEIGER

@<TRIPOS>ATOM
      1 F          -0.4902   -0.2712   -1.9421 F       1  UNL1        0.0000
      2 B           0.3405   -0.2818   -0.7265 B       1  UNL1        0.0000
      3 F           1.2023   -1.4596   -0.7345 F       1  UNL1        0.0000
      4 C          -0.6170   -0.3784    0.5012 C.2     1  UNL1        0.0000
      5 C          -1.5662   -1.5021    0.5917 C.ar    1  UNL1        0.0000
      6 C          -1.6226   -2.4683   -0.3888 C.ar    1  UNL1        0.0000
      7 C          -2.5301   -3.5239   -0.2816 C.ar    1  UNL1        0.0000
      8 C          -3.3849   -3.6339    0.7888 C.ar    1  UNL1        0.0000
      9 F          -4.2515   -4.6732    0.8569 F       1  UNL1        0.0000
     10 C          -3.3279   -2.6593    1.7778 C.ar    1  UNL1        0.0000
     11 C          -2.4303   -1.6329    1.6522 C.ar    1  UNL1        0.0000
     12 N          -0.5751    0.5141    1.4209 N.2     1  UNL1        0.0000
     13 N           0.2636    1.6085    1.4520 N.pl3   1  UNL1        0.0000
     14 C           1.1820    1.7814    0.3624 C.ar    1  UNL1        0.0000
     15 N           1.2571    0.9357   -0.6690 N.ar    1  UNL1        1.0000
     16 C           2.1567    1.1751   -1.6594 C.ar    1  UNL1        0.0000
     17 C           2.9843    2.2754   -1.6064 C.ar    1  UNL1        0.0000
     18 C           2.9411    3.1771   -0.5581 C.ar    1  UNL1        0.0000
     19 C           3.7750    4.3345   -0.4512 C.1     1  UNL1        0.0000
     20 N           4.4619    5.2624   -0.3669 N.1     1  UNL1        0.0000
     21 C           2.0183    2.9008    0.4243 C.ar    1  UNL1        0.0000
     22 H          -0.9644   -2.4162   -1.2487 H       1  UNL1        0.0000
     23 H          -2.5404   -4.2637   -1.0780 H       1  UNL1        0.0000
     24 H          -4.0098   -2.7717    2.6045 H       1  UNL1        0.0000
     25 H          -2.3949   -0.8831    2.4249 H       1  UNL1        0.0000
     26 H           0.2619    2.3184    2.2323 H       1  UNL1        0.0000
     27 H           2.1930    0.4711   -2.4815 H       1  UNL1        0.0000
     28 H           3.6993    2.4639   -2.3955 H       1  UNL1        0.0000
     29 H           1.9685    3.6008    1.2607 H       1  UNL1        0.0000
@<TRIPOS>UNITY_ATOM_ATTR
2 1
charge -1
15 1
charge 1
@<TRIPOS>BOND
     1     1     2    1
     2     2     3    1
     3     2     4    1
     4     4     5    1
     5     5     6   ar
     6     6     7   ar
     7     7     8   ar
     8     8     9    1
     9     8    10   ar
    10    10    11   ar
    11     4    12    2
    12    12    13    1
    13    13    14    1
    14    14    15   ar
    15    15    16   ar
    16    16    17   ar
    17    17    18   ar
    18    18    19    1
    19    19    20    3
    20    18    21   ar
    21    15     2    1
    22    11     5   ar
    23    21    14   ar
    24     6    22    1
    25     7    23    1
    26    10    24    1
    27    11    25    1
    28    13    26    1
    29    16    27    1
    30    17    28    1
    31    21    29    1
