@<TRIPOS>MOLECULE
*****
 28 30 0 0 0
SMALL
GASTEIGER

@<TRIPOS>ATOM
      1 F          -0.0456   -1.8998    0.5667 F       1  UNL1        0.0000
      2 B          -0.3281   -0.7589   -0.3131 B       1  UNL1        0.0000
      3 F           0.1776   -1.1143   -1.6461 F       1  UNL1        0.0000
      4 C           0.4472    0.4872    0.2225 C.2     1  UNL1        0.0000
      5 C           1.9036    0.3774    0.3290 C.ar    1  UNL1        0.0000
      6 C           2.5549   -0.7783   -0.0278 C.ar    1  UNL1        0.0000
      7 C           3.9438   -0.8920    0.0697 C.ar    1  UNL1        0.0000
      8 C           4.7082    0.1578    0.5296 C.ar    1  UNL1        0.0000
      9 F           6.0566    0.0751    0.6344 F       1  UNL1        0.0000
     10 C           4.0548    1.3209    0.8890 C.ar    1  UNL1        0.0000
     11 C           2.6772    1.4304    0.7910 C.ar    1  UNL1        0.0000
     12 N          -0.1574    1.5827    0.5638 N.2     1  UNL1        0.0000
     13 N          -1.5450    1.7051    0.4695 N.pl3   1  UNL1        0.0000
     14 C          -2.3690    0.6431   -0.0027 C.ar    1  UNL1        0.0000
     15 N          -1.8418   -0.5416   -0.3842 N.ar    1  UNL1        1.0000
     16 C          -2.5985   -1.5501   -0.8295 C.ar    1  UNL1        0.0000
     17 C          -3.9605   -1.4098   -0.9143 C.ar    1  UNL1        0.0000
     18 C          -4.5717   -0.2206   -0.5395 C.ar    1  UNL1        0.0000
     19 C          -3.7407    0.7859   -0.0875 C.ar    1  UNL1        0.0000
     20 H           2.0167   -1.6250   -0.3904 H       1  UNL1        0.0000
     21 H           4.3948   -1.8263   -0.2264 H       1  UNL1        0.0000
     22 H           4.6526    2.1590    1.2549 H       1  UNL1        0.0000
     23 H           2.1578    2.3274    1.0666 H       1  UNL1        0.0000
     24 H          -1.9890    2.6114    0.7574 H       1  UNL1        0.0000
     25 H          -2.1576   -2.4827   -1.1273 H       1  UNL1        0.0000
     26 H          -4.5968   -2.2100   -1.2713 H       1  UNL1        0.0000
     27 H          -5.6452   -0.0781   -0.5947 H       1  UNL1        0.0000
     28 H          -4.1987    1.7240    0.2106 H       1  UNL1        0.0000
@<TRIPOS>UNITY_ATOM_ATTR
2 1
charge -1
15 1
charge 1
@<TRIPOS>BOND
     1     1     2    1
     2     2     3    1
     3     2     4    1
     4     4     5    1
     5     5     6   ar
     6     6     7   ar
     7     7     8   ar
     8     8     9    1
     9     8    10   ar
    10    10    11   ar
    11     4    12    2
    12    12    13    1
    13    13    14    1
    14    14    15   ar
    15    15    16   ar
    16    16    17   ar
    17    17    18   ar
    18    18    19   ar
    19    15     2    1
    20    11     5   ar
    21    19    14   ar
    22     6    20    1
    23     7    21    1
    24    10    22    1
    25    11    23    1
    26    13    24    1
    27    16    25    1
    28    17    26    1
    29    18    27    1
    30    19    28    1
