@<TRIPOS>MOLECULE
*****
 24 25 0 0 0
SMALL
GASTEIGER

@<TRIPOS>ATOM
      1 F          -0.2846   -1.4004   -1.7611 F       1  UNL1        0.0000
      2 B          -0.1519   -1.1091   -0.3616 B       1  UNL1        0.0000
      3 F          -0.5034   -2.2177    0.4944 F       1  UNL1        0.0000
      4 N           1.2672   -0.6025   -0.1108 N.pl3   1  UNL1        0.5000
      5 C           2.5497   -1.2160   -0.2738 C.2     1  UNL1        0.0000
      6 C           3.6395   -0.5506    0.0194 C.2     1  UNL1        0.0000
      7 BR          5.3459   -1.3747   -0.2003 Br      1  UNL1        0.0000
      8 C           3.5341    0.8208    0.5135 C.2     1  UNL1        0.0000
      9 C           2.4031    1.4549    0.6911 C.2     1  UNL1        0.0000
     10 C           1.1615    0.7165    0.3642 C.2     1  UNL1        0.0000
     11 N          -0.0602    1.0840    0.4405 N.2     1  UNL1        0.5000
     12 N          -0.9719    0.1361    0.0527 N.2     1  UNL1        1.0000
     13 C          -2.2706    0.2137    0.0198 C.2     1  UNL1        0.0000
     14 C          -2.8802    1.4966    0.4577 C.3     1  UNL1        0.0000
     15 C          -3.1045   -0.9044   -0.4263 C.3     1  UNL1        0.0000
     16 H           2.5506   -2.2416   -0.6469 H       1  UNL1        0.0000
     17 H           4.4634    1.3225    0.7396 H       1  UNL1        0.0000
     18 H           2.3494    2.4830    1.0627 H       1  UNL1        0.0000
     19 H          -2.3112    2.3061   -0.0753 H       1  UNL1        0.0000
     20 H          -3.9576    1.5436    0.2308 H       1  UNL1        0.0000
     21 H          -2.6532    1.6120    1.5352 H       1  UNL1        0.0000
     22 H          -4.1292   -0.5263   -0.6203 H       1  UNL1        0.0000
     23 H          -2.7612   -1.3671   -1.3787 H       1  UNL1        0.0000
     24 H          -3.2249   -1.6795    0.3822 H       1  UNL1        0.0000
@<TRIPOS>UNITY_ATOM_ATTR
2 1
charge -1
12 1
charge 1
@<TRIPOS>BOND
     1     1     2    1
     2     2     3    1
     3     2     4    1
     4     4     5    1
     5     5     6    2
     6     6     7    1
     7     6     8    1
     8     8     9    2
     9     9    10    1
    10    10    11    2
    11    11    12    1
    12    12    13    2
    13    13    14    1
    14    13    15    1
    15    12     2    1
    16    10     4    1
    17     5    16    1
    18     8    17    1
    19     9    18    1
    20    14    19    1
    21    14    20    1
    22    14    21    1
    23    15    22    1
    24    15    23    1
    25    15    24    1
