@<TRIPOS>MOLECULE
*****
 25 27 0 0 0
SMALL
GASTEIGER

@<TRIPOS>ATOM
      1 F          -0.3212   -1.4979   -0.0311 F       1  UNL1        0.0000
      2 B           0.1146   -0.1802    0.3762 B       1  UNL1        0.0000
      3 F          -0.2152    0.0965    1.7697 F       1  UNL1        0.0000
      4 N           1.6266   -0.0124    0.2521 N.pl3   1  UNL1        0.5000
      5 C           2.7501   -0.6875    0.8280 C.2     1  UNL1        0.0000
      6 C           3.9843   -0.3178    0.5323 C.2     1  UNL1        0.0000
      7 BR          5.4223   -1.2815    1.3525 Br      1  UNL1        0.0000
      8 C           4.2130    0.7839   -0.3856 C.2     1  UNL1        0.0000
      9 C           3.2182    1.4515   -0.9539 C.2     1  UNL1        0.0000
     10 C           1.8261    1.0615   -0.6429 C.2     1  UNL1        0.0000
     11 N           0.7416    1.5675   -1.0772 N.2     1  UNL1        0.5000
     12 N          -0.3791    0.9186   -0.5471 N.2     1  UNL1        1.0000
     13 C          -1.6242    1.1693   -0.7699 C.2     1  UNL1        0.0000
     14 C          -2.6106    0.3044   -0.0579 C.ar    1  UNL1        0.0000
     15 C          -3.4039   -0.6631   -0.5672 C.ar    1  UNL1        0.0000
     16 C          -4.2322   -1.3336    0.2532 C.ar    1  UNL1        0.0000
     17 C          -4.2362   -1.0129    1.5465 C.ar    1  UNL1        0.0000
     18 S          -3.0085    0.3047    1.6197 S.2     1  UNL1        0.0000
     19 H           2.5241   -1.5090    1.5118 H       1  UNL1        0.0000
     20 H           5.2435    1.0659   -0.6102 H       1  UNL1        0.0000
     21 H           3.3950    2.2718   -1.6372 H       1  UNL1        0.0000
     22 H          -1.9385    1.9438   -1.4203 H       1  UNL1        0.0000
     23 H          -3.3517   -0.8834   -1.6642 H       1  UNL1        0.0000
     24 H          -4.9068   -2.1450   -0.1352 H       1  UNL1        0.0000
     25 H          -4.8312   -1.4153    2.4514 H       1  UNL1        0.0000
@<TRIPOS>UNITY_ATOM_ATTR
2 1
charge -1
12 1
charge 1
@<TRIPOS>BOND
     1     1     2    1
     2     2     3    1
     3     2     4    1
     4     4     5    1
     5     5     6    2
     6     6     7    1
     7     6     8    1
     8     8     9    2
     9     9    10    1
    10    10    11    2
    11    11    12    1
    12    12    13    2
    13    13    14    1
    14    14    15   ar
    15    15    16   ar
    16    16    17   ar
    17    17    18   ar
    18    12     2    1
    19    10     4    1
    20    18    14   ar
    21     5    19    1
    22     8    20    1
    23     9    21    1
    24    13    22    1
    25    15    23    1
    26    16    24    1
    27    17    25    1
