@<TRIPOS>MOLECULE
*****
 24 26 0 0 0
SMALL
GASTEIGER

@<TRIPOS>ATOM
      1 F           0.1566    2.2263    1.2226 F       1  UNL1        0.0000
      2 B           0.0573    0.7733    1.0977 B       1  UNL1        0.0000
      3 F           0.0494    0.1663    2.4465 F       1  UNL1        0.0000
      4 N           1.2638    0.2274    0.3638 N.pl3   1  UNL1        0.5000
      5 C           2.5645    0.5768    0.9144 C.2     1  UNL1        0.0000
      6 C           3.6137    0.1079    0.2845 C.2     1  UNL1        0.0000
      7 C           3.5181   -0.7263   -0.9126 C.2     1  UNL1        0.0000
      8 C           2.3490   -1.0543   -1.4274 C.2     1  UNL1        0.0000
      9 C           1.1271   -0.5717   -0.7846 C.2     1  UNL1        0.0000
     10 N          -0.0436   -0.8850   -1.2786 N.2     1  UNL1        0.5000
     11 C          -1.2275   -0.4158   -0.6535 C.ar    1  UNL1        0.0000
     12 N          -1.2261    0.3463    0.4368 N.ar    1  UNL1        1.0000
     13 C          -2.3843    0.7834    1.0168 C.ar    1  UNL1        0.0000
     14 C          -3.6185    0.4631    0.5104 C.ar    1  UNL1        0.0000
     15 C          -3.6665   -0.3242   -0.6177 C.ar    1  UNL1        0.0000
     16 C          -2.4858   -0.7452   -1.1739 C.ar    1  UNL1        0.0000
     17 H           2.6510    1.1932    1.7995 H       1  UNL1        0.0000
     18 H           4.6002    0.3420    0.6578 H       1  UNL1        0.0000
     19 H           4.4241   -1.0907   -1.3985 H       1  UNL1        0.0000
     20 H           2.2197   -1.6664   -2.3081 H       1  UNL1        0.0000
     21 H          -2.3423    1.4133    1.9197 H       1  UNL1        0.0000
     22 H          -4.5398    0.8249    0.9920 H       1  UNL1        0.0000
     23 H          -4.6065   -0.5891   -1.0334 H       1  UNL1        0.0000
     24 H          -2.4536   -1.3755   -2.0743 H       1  UNL1        0.0000
@<TRIPOS>UNITY_ATOM_ATTR
2 1
charge -1
12 1
charge 1
@<TRIPOS>BOND
     1     1     2    1
     2     2     3    1
     3     2     4    1
     4     4     5    1
     5     5     6    2
     6     6     7    1
     7     7     8    2
     8     8     9    1
     9     9    10    2
    10    10    11    1
    11    11    12   ar
    12    12    13   ar
    13    13    14   ar
    14    14    15   ar
    15    15    16   ar
    16    12     2    1
    17     9     4    1
    18    16    11   ar
    19     5    17    1
    20     6    18    1
    21     7    19    1
    22     8    20    1
    23    13    21    1
    24    14    22    1
    25    15    23    1
    26    16    24    1
