@<TRIPOS>MOLECULE
*****
 35 38 0 0 0
SMALL
GASTEIGER

@<TRIPOS>ATOM
      1 F          -1.2099    4.6124   -0.0131 F       1  UNL1       -0.2055
      2 C          -1.2425    3.2765   -0.1057 C.ar    1  UNL1        0.1234
      3 C          -1.3334    2.5123    1.0516 C.ar    1  UNL1       -0.0258
      4 C          -1.3678    1.1200    0.9566 C.ar    1  UNL1       -0.0499
      5 C          -1.1922    2.6768   -1.3587 C.ar    1  UNL1       -0.0258
      6 C          -1.2246    1.2847   -1.4573 C.ar    1  UNL1       -0.0499
      7 C          -1.2976    0.4963   -0.2982 C.ar    1  UNL1       -0.0009
      8 C          -1.3456   -0.9701   -0.3982 C.ar    1  UNL1        0.0557
      9 C          -2.5249   -1.5205   -0.7646 C.ar    1  UNL1       -0.0371
     10 C          -2.6594   -2.9631   -0.8510 C.ar    1  UNL1       -0.0578
     11 C          -1.6376   -3.7817   -0.5487 C.ar    1  UNL1       -0.0362
     12 C          -0.3961   -3.2233   -0.1462 C.ar    1  UNL1        0.0666
     13 C           0.8094   -3.7377    0.2568 C.ar    1  UNL1        0.0538
     14 N           1.6936   -2.7364    0.5335 N.ar    1  UNL1       -0.2349
     15 C           1.0625   -1.5992    0.2832 C.ar    1  UNL1        0.1456
     16 C           1.7031   -0.2924    0.4079 C.ar    1  UNL1        0.0178
     17 C           2.0612    0.4423   -0.7292 C.ar    1  UNL1       -0.0511
     18 C           2.6780    1.6881   -0.5976 C.ar    1  UNL1       -0.0611
     19 C           2.9562    2.1983    0.6698 C.ar    1  UNL1       -0.0617
     20 C           2.6308    1.4596    1.8065 C.ar    1  UNL1       -0.0611
     21 C           2.0136    0.2141    1.6761 C.ar    1  UNL1       -0.0511
     22 N          -0.2624   -1.8323   -0.0994 N.ar    1  UNL1       -0.2922
     23 H          -1.3729    3.0032    2.0185 H       1  UNL1        0.0646
     24 H          -1.4385    0.5261    1.8652 H       1  UNL1        0.0625
     25 H          -1.1253    3.2953   -2.2477 H       1  UNL1        0.0646
     26 H          -1.1815    0.8188   -2.4392 H       1  UNL1        0.0625
     27 H          -3.4024   -0.9210   -0.9907 H       1  UNL1        0.0638
     28 H          -3.6196   -3.3653   -1.1605 H       1  UNL1        0.0619
     29 H          -1.7492   -4.8600   -0.6082 H       1  UNL1        0.0639
     30 H           1.0886   -4.7778    0.3627 H       1  UNL1        0.0851
     31 H           1.8627    0.0468   -1.7222 H       1  UNL1        0.0625
     32 H           2.9455    2.2578   -1.4834 H       1  UNL1        0.0618
     33 H           3.4377    3.1675    0.7714 H       1  UNL1        0.0618
     34 H           2.8636    1.8490    2.7940 H       1  UNL1        0.0618
     35 H           1.7769   -0.3648    2.5659 H       1  UNL1        0.0625
@<TRIPOS>BOND
     1     1     2    1
     2     2     3   ar
     3     3     4   ar
     4     2     5   ar
     5     5     6   ar
     6     6     7   ar
     7     7     8    1
     8     8     9   ar
     9     9    10   ar
    10    10    11   ar
    11    11    12   ar
    12    12    13   ar
    13    13    14   ar
    14    14    15   ar
    15    15    16    1
    16    16    17   ar
    17    17    18   ar
    18    18    19   ar
    19    19    20   ar
    20    20    21   ar
    21    15    22   ar
    22     7     4   ar
    23    22     8   ar
    24    22    12   ar
    25    21    16   ar
    26     3    23    1
    27     4    24    1
    28     5    25    1
    29     6    26    1
    30     9    27    1
    31    10    28    1
    32    11    29    1
    33    13    30    1
    34    17    31    1
    35    18    32    1
    36    19    33    1
    37    20    34    1
    38    21    35    1
