@<TRIPOS>MOLECULE
*****
 29 31 0 0 0
SMALL
GASTEIGER

@<TRIPOS>ATOM
      1 F          -6.6492   -0.0675   -0.0211 F       1  UNL1       -0.2055
      2 C          -5.3278   -0.1275    0.1869 C.ar    1  UNL1        0.1234
      3 C          -4.8472   -0.5504    1.4196 C.ar    1  UNL1       -0.0258
      4 C          -3.4674   -0.6145    1.6412 C.ar    1  UNL1       -0.0498
      5 C          -4.4561    0.2334   -0.8308 C.ar    1  UNL1       -0.0258
      6 C          -3.0775    0.1698   -0.6107 C.ar    1  UNL1       -0.0498
      7 C          -2.5629   -0.2549    0.6277 C.ar    1  UNL1        0.0038
      8 C          -1.1158   -0.3165    0.8440 C.ar    1  UNL1        0.1130
      9 N          -0.2287    0.0210   -0.1065 N.ar    1  UNL1       -0.1471
     10 N           0.9695   -0.1780    0.4994 N.ar    1  UNL1       -0.1497
     11 C           2.2000    0.0646   -0.1681 C.ar    1  UNL1        0.0862
     12 C           3.4160   -0.1544    0.4961 C.ar    1  UNL1       -0.0333
     13 C           4.6259    0.0852   -0.1633 C.ar    1  UNL1       -0.0423
     14 C           4.6289    0.5435   -1.4855 C.ar    1  UNL1        0.0519
     15 C           5.8709    0.7883   -2.1591 C.1     1  UNL1        0.0992
     16 N           6.8759    0.9866   -2.7046 N.1     1  UNL1       -0.1909
     17 C           3.4159    0.7620   -2.1481 C.ar    1  UNL1       -0.0423
     18 C           2.2031    0.5240   -1.4935 C.ar    1  UNL1       -0.0333
     19 N           0.9210   -0.6224    1.7806 N.ar    1  UNL1       -0.1549
     20 C          -0.3929   -0.7078    1.9922 C.ar    1  UNL1        0.0776
     21 H          -5.5484   -0.8276    2.2007 H       1  UNL1        0.0646
     22 H          -3.1225   -0.9492    2.6158 H       1  UNL1        0.0625
     23 H          -4.8497    0.5615   -1.7876 H       1  UNL1        0.0646
     24 H          -2.4045    0.4557   -1.4176 H       1  UNL1        0.0625
     25 H           3.4371   -0.5108    1.5250 H       1  UNL1        0.0640
     26 H           5.5630   -0.0887    0.3633 H       1  UNL1        0.0631
     27 H           3.4051    1.1184   -3.1769 H       1  UNL1        0.0631
     28 H           1.2712    0.7008   -2.0284 H       1  UNL1        0.0640
     29 H          -0.7527   -1.0444    2.9542 H       1  UNL1        0.0870
@<TRIPOS>BOND
     1     1     2    1
     2     2     3   ar
     3     3     4   ar
     4     2     5   ar
     5     5     6   ar
     6     6     7   ar
     7     7     8    1
     8     8     9   ar
     9     9    10   ar
    10    10    11    1
    11    11    12   ar
    12    12    13   ar
    13    13    14   ar
    14    14    15    1
    15    15    16    3
    16    14    17   ar
    17    17    18   ar
    18    10    19   ar
    19    19    20   ar
    20     7     4   ar
    21    20     8   ar
    22    18    11   ar
    23     3    21    1
    24     4    22    1
    25     5    23    1
    26     6    24    1
    27    12    25    1
    28    13    26    1
    29    17    27    1
    30    18    28    1
    31    20    29    1
