@<TRIPOS>MOLECULE
*****
 28 30 0 0 0
SMALL
GASTEIGER

@<TRIPOS>ATOM
      1 F          -6.2392   -1.4118   -0.4492 F       1  UNL1       -0.2055
      2 C          -4.9977   -0.9217   -0.3420 C.ar    1  UNL1        0.1234
      3 C          -4.8112    0.4489   -0.2153 C.ar    1  UNL1       -0.0258
      4 C          -3.5159    0.9652   -0.1030 C.ar    1  UNL1       -0.0498
      5 C          -3.9142   -1.7886   -0.3588 C.ar    1  UNL1       -0.0258
      6 C          -2.6196   -1.2740   -0.2467 C.ar    1  UNL1       -0.0498
      7 C          -2.4013    0.1096   -0.1172 C.ar    1  UNL1        0.0038
      8 C          -1.0391    0.6344   -0.0006 C.ar    1  UNL1        0.1130
      9 N           0.0438   -0.1601   -0.0114 N.ar    1  UNL1       -0.1471
     10 N           1.0746    0.7142    0.1176 N.ar    1  UNL1       -0.1497
     11 C           2.4276    0.2830    0.1521 C.ar    1  UNL1        0.0862
     12 C           3.4623    1.2216    0.2867 C.ar    1  UNL1       -0.0332
     13 C           4.7927    0.7940    0.3203 C.ar    1  UNL1       -0.0413
     14 C           5.0887   -0.5649    0.2200 C.ar    1  UNL1        0.0411
     15 CL          6.7274   -1.0871    0.2618 Cl      1  UNL1       -0.0835
     16 C           4.0666   -1.5038    0.0860 C.ar    1  UNL1       -0.0413
     17 C           2.7340   -1.0829    0.0517 C.ar    1  UNL1       -0.0332
     18 N           0.7333    2.0246    0.2114 N.ar    1  UNL1       -0.1549
     19 C          -0.5968    1.9683    0.1365 C.ar    1  UNL1        0.0776
     20 H          -5.6742    1.1075   -0.2046 H       1  UNL1        0.0646
     21 H          -3.4026    2.0415   -0.0052 H       1  UNL1        0.0625
     22 H          -4.0788   -2.8567   -0.4586 H       1  UNL1        0.0646
     23 H          -1.7781   -1.9649   -0.2612 H       1  UNL1        0.0625
     24 H           3.2483    2.2861    0.3662 H       1  UNL1        0.0640
     25 H           5.5905    1.5249    0.4247 H       1  UNL1        0.0633
     26 H           4.2988   -2.5628    0.0079 H       1  UNL1        0.0633
     27 H           1.9481   -1.8289   -0.0534 H       1  UNL1        0.0640
     28 H          -1.1680    2.8845    0.1845 H       1  UNL1        0.0870
@<TRIPOS>BOND
     1     1     2    1
     2     2     3   ar
     3     3     4   ar
     4     2     5   ar
     5     5     6   ar
     6     6     7   ar
     7     7     8    1
     8     8     9   ar
     9     9    10   ar
    10    10    11    1
    11    11    12   ar
    12    12    13   ar
    13    13    14   ar
    14    14    15    1
    15    14    16   ar
    16    16    17   ar
    17    10    18   ar
    18    18    19   ar
    19     7     4   ar
    20    19     8   ar
    21    17    11   ar
    22     3    20    1
    23     4    21    1
    24     5    22    1
    25     6    23    1
    26    12    24    1
    27    13    25    1
    28    16    26    1
    29    17    27    1
    30    19    28    1
