@<TRIPOS>MOLECULE
*****
 28 30 0 0 0
SMALL
GASTEIGER

@<TRIPOS>ATOM
      1 F          -6.1779    0.5269    1.6281 F       1  UNL1       -0.2055
      2 C          -4.9538    0.3552    1.1132 C.ar    1  UNL1        0.1234
      3 C          -4.8175   -0.0866   -0.1966 C.ar    1  UNL1       -0.0258
      4 C          -3.5405   -0.2673   -0.7384 C.ar    1  UNL1       -0.0498
      5 C          -3.8377    0.6206    1.8942 C.ar    1  UNL1       -0.0258
      6 C          -2.5614    0.4405    1.3541 C.ar    1  UNL1       -0.0498
      7 C          -2.3939   -0.0058    0.0307 C.ar    1  UNL1        0.0038
      8 C          -1.0502   -0.1900   -0.5218 C.ar    1  UNL1        0.1130
      9 N           0.0625    0.0519    0.1905 N.ar    1  UNL1       -0.1471
     10 N           1.0618   -0.2404   -0.6811 N.ar    1  UNL1       -0.1497
     11 C           2.4315   -0.1180   -0.3247 C.ar    1  UNL1        0.0863
     12 C           3.4324   -0.4316   -1.2591 C.ar    1  UNL1       -0.0318
     13 C           4.7778   -0.3098   -0.9044 C.ar    1  UNL1       -0.0244
     14 C           5.1162    0.1218    0.3737 C.ar    1  UNL1        0.1235
     15 F           6.4075    0.2372    0.7097 F       1  UNL1       -0.2055
     16 C           4.1355    0.4355    1.3086 C.ar    1  UNL1       -0.0244
     17 C           2.7875    0.3167    0.9627 C.ar    1  UNL1       -0.0318
     18 N           0.6720   -0.6564   -1.9130 N.ar    1  UNL1       -0.1549
     19 C          -0.6567   -0.6228   -1.8070 C.ar    1  UNL1        0.0776
     20 H          -5.7052   -0.2878   -0.7884 H       1  UNL1        0.0646
     21 H          -3.4667   -0.6139   -1.7657 H       1  UNL1        0.0625
     22 H          -3.9632    0.9651    2.9157 H       1  UNL1        0.0646
     23 H          -1.6940    0.6523    1.9774 H       1  UNL1        0.0625
     24 H           3.1791   -0.7702   -2.2622 H       1  UNL1        0.0640
     25 H           5.5621   -0.5485   -1.6159 H       1  UNL1        0.0647
     26 H           4.4259    0.7702    2.2996 H       1  UNL1        0.0647
     27 H           2.0287    0.5650    1.7025 H       1  UNL1        0.0640
     28 H          -1.2619   -0.9097   -2.6552 H       1  UNL1        0.0870
@<TRIPOS>BOND
     1     1     2    1
     2     2     3   ar
     3     3     4   ar
     4     2     5   ar
     5     5     6   ar
     6     6     7   ar
     7     7     8    1
     8     8     9   ar
     9     9    10   ar
    10    10    11    1
    11    11    12   ar
    12    12    13   ar
    13    13    14   ar
    14    14    15    1
    15    14    16   ar
    16    16    17   ar
    17    10    18   ar
    18    18    19   ar
    19     7     4   ar
    20    19     8   ar
    21    17    11   ar
    22     3    20    1
    23     4    21    1
    24     5    22    1
    25     6    23    1
    26    12    24    1
    27    13    25    1
    28    16    26    1
    29    17    27    1
    30    19    28    1
