@<TRIPOS>MOLECULE
*****
 32 34 0 0 0
SMALL
GASTEIGER

@<TRIPOS>ATOM
      1 F          -7.2646   -1.0113   -0.4073 F       1  UNL1       -0.2055
      2 C          -5.9967   -0.6083   -0.2556 C.ar    1  UNL1        0.1234
      3 C          -5.7366    0.6506    0.2705 C.ar    1  UNL1       -0.0258
      4 C          -4.4135    1.0757    0.4307 C.ar    1  UNL1       -0.0498
      5 C          -4.9595   -1.4529   -0.6255 C.ar    1  UNL1       -0.0258
      6 C          -3.6373   -1.0295   -0.4660 C.ar    1  UNL1       -0.0498
      7 C          -3.3447    0.2402    0.0642 C.ar    1  UNL1        0.0038
      8 C          -1.9542    0.6703    0.2255 C.ar    1  UNL1        0.1130
      9 N          -0.9144   -0.1077   -0.1165 N.ar    1  UNL1       -0.1471
     10 N           0.1648    0.6581    0.1906 N.ar    1  UNL1       -0.1497
     11 C           1.4941    0.2058   -0.0185 C.ar    1  UNL1        0.0864
     12 C           1.7293   -1.0651   -0.5566 C.ar    1  UNL1       -0.0311
     13 C           3.0418   -1.5012   -0.7585 C.ar    1  UNL1       -0.0179
     14 C           4.1269   -0.6837   -0.4298 C.ar    1  UNL1        0.1202
     15 O           5.3529   -1.2359   -0.6794 O.3     1  UNL1       -0.4951
     16 C           6.4913   -0.4449   -0.3626 C.3     1  UNL1        0.0788
     17 C           3.8907    0.5830    0.1065 C.ar    1  UNL1       -0.0179
     18 C           2.5792    1.0289    0.3126 C.ar    1  UNL1       -0.0311
     19 N          -0.1068    1.8836    0.7101 N.ar    1  UNL1       -0.1549
     20 C          -1.4400    1.8848    0.7293 C.ar    1  UNL1        0.0776
     21 H          -6.5643    1.2939    0.5528 H       1  UNL1        0.0646
     22 H          -4.2422    2.0656    0.8448 H       1  UNL1        0.0625
     23 H          -5.1812   -2.4333   -1.0349 H       1  UNL1        0.0646
     24 H          -2.8324   -1.7015   -0.7600 H       1  UNL1        0.0625
     25 H           0.9075   -1.7264   -0.8232 H       1  UNL1        0.0640
     26 H           3.2208   -2.4892   -1.1768 H       1  UNL1        0.0655
     27 H           6.5338   -0.2258    0.7094 H       1  UNL1        0.0660
     28 H           6.5104    0.4751   -0.9561 H       1  UNL1        0.0660
     29 H           7.3831   -1.0248   -0.6192 H       1  UNL1        0.0660
     30 H           4.7024    1.2507    0.3761 H       1  UNL1        0.0655
     31 H           2.4215    2.0209    0.7322 H       1  UNL1        0.0640
     32 H          -1.9620    2.7543    1.1026 H       1  UNL1        0.0870
@<TRIPOS>BOND
     1     1     2    1
     2     2     3   ar
     3     3     4   ar
     4     2     5   ar
     5     5     6   ar
     6     6     7   ar
     7     7     8    1
     8     8     9   ar
     9     9    10   ar
    10    10    11    1
    11    11    12   ar
    12    12    13   ar
    13    13    14   ar
    14    14    15    1
    15    15    16    1
    16    14    17   ar
    17    17    18   ar
    18    10    19   ar
    19    19    20   ar
    20     7     4   ar
    21    20     8   ar
    22    18    11   ar
    23     3    21    1
    24     4    22    1
    25     5    23    1
    26     6    24    1
    27    12    25    1
    28    13    26    1
    29    16    27    1
    30    16    28    1
    31    16    29    1
    32    17    30    1
    33    18    31    1
    34    20    32    1
