@<TRIPOS>MOLECULE
*****
 33 38 0 0 0
SMALL
GASTEIGER

@<TRIPOS>ATOM
      1 SI          6.3258   -0.3474    0.6090 Si      1  UNL1        0.0000
      2 C           5.1578   -1.8551    0.5857 C.2     1  UNL1        0.0000
      3 C           3.8609   -1.4771    0.5480 C.2     1  UNL1        0.0000
      4 C           3.6357   -0.0585    0.5380 C.ar    1  UNL1        0.0000
      5 C           4.8026    0.7577    0.5501 C.ar    1  UNL1        0.0000
      6 C           4.5738    2.0972    0.5101 C.ar    1  UNL1        0.0000
      7 S           2.8763    2.3830    0.4507 S.2     1  UNL1        0.0000
      8 C           2.4795    0.6896    0.5016 C.ar    1  UNL1        0.0000
      9 C           1.1038    0.2600    0.5067 C.ar    1  UNL1        0.0000
     10 C           0.5315   -0.8596    1.1420 C.ar    1  UNL1        0.0000
     11 C          -0.8331   -0.7913    0.8100 C.ar    1  UNL1        0.0000
     12 O          -2.0281   -1.4294    0.9909 O.2     1  UNL1        0.0000
     13 C          -2.9236   -0.6644    0.2990 C.ar    1  UNL1        0.0000
     14 C          -4.2613   -0.5187   -0.0693 C.ar    1  UNL1        0.0000
     15 N          -5.3449   -1.2720    0.2112 N.ar    1  UNL1        0.0000
     16 C          -6.4810   -0.7829   -0.3434 C.ar    1  UNL1        0.0000
     17 C          -6.5799    0.3692   -1.1282 C.ar    1  UNL1        0.0000
     18 C          -5.4394    1.1312   -1.4032 C.ar    1  UNL1        0.0000
     19 C          -4.2598    0.6524   -0.8465 C.ar    1  UNL1        0.0000
     20 O          -3.0011    1.2185   -0.9672 O.2     1  UNL1        0.0000
     21 C          -2.2730    0.3570   -0.2484 C.ar    1  UNL1        0.0000
     22 C          -1.0027    0.2908    0.0549 C.ar    1  UNL1        0.0000
     23 N           0.1147    0.9803   -0.1684 N.ar    1  UNL1        0.0000
     24 H           7.0782   -0.2717    1.8858 H       1  UNL1        0.0000
     25 H           7.1559   -0.2944   -0.6201 H       1  UNL1        0.0000
     26 H           5.5480   -2.8601    0.5919 H       1  UNL1        0.0000
     27 H           3.0475   -2.1917    0.5110 H       1  UNL1        0.0000
     28 H           5.2744    2.9211    0.5064 H       1  UNL1        0.0000
     29 H           1.0317   -1.5939    1.7557 H       1  UNL1        0.0000
     30 H          -7.3713   -1.3727   -0.1319 H       1  UNL1        0.0000
     31 H          -7.5455    0.6709   -1.5238 H       1  UNL1        0.0000
     32 H          -5.4664    2.0301   -2.0051 H       1  UNL1        0.0000
     33 H           0.2132    1.8320   -0.7068 H       1  UNL1        0.0000
@<TRIPOS>BOND
     1     1     2    1
     2     2     3    2
     3     3     4    1
     4     4     5   ar
     5     5     6   ar
     6     6     7   ar
     7     7     8   ar
     8     8     9    1
     9     9    10   ar
    10    10    11   ar
    11    11    12   ar
    12    12    13   ar
    13    13    14   ar
    14    14    15   ar
    15    15    16   ar
    16    16    17   ar
    17    17    18   ar
    18    18    19   ar
    19    19    20   ar
    20    20    21   ar
    21    21    22   ar
    22    22    23   ar
    23     5     1    1
    24    23     9   ar
    25     8     4   ar
    26    22    11   ar
    27    21    13   ar
    28    19    14   ar
    29     1    24    1
    30     1    25    1
    31     2    26    1
    32     3    27    1
    33     6    28    1
    34    10    29    1
    35    16    30    1
    36    17    31    1
    37    18    32    1
    38    23    33    1
