@<TRIPOS>MOLECULE
*****
 28 30 0 0 0
SMALL
GASTEIGER

@<TRIPOS>ATOM
      1 F          -6.2917    1.0365   -0.3187 F       1  UNL1       -0.2055
      2 C          -5.0192    0.7152   -0.0526 C.ar    1  UNL1        0.1234
      3 C          -4.7263   -0.0498    1.0691 C.ar    1  UNL1       -0.0258
      4 C          -3.3984   -0.3878    1.3508 C.ar    1  UNL1       -0.0498
      5 C          -4.0103    1.1502   -0.9004 C.ar    1  UNL1       -0.0258
      6 C          -2.6833    0.8132   -0.6201 C.ar    1  UNL1       -0.0498
      7 C          -2.3577    0.0397    0.5089 C.ar    1  UNL1        0.0038
      8 C          -0.9625   -0.3056    0.7898 C.ar    1  UNL1        0.1130
      9 N           0.0508    0.0897    0.0023 N.ar    1  UNL1       -0.1471
     10 N           1.1459   -0.4353    0.6125 N.ar    1  UNL1       -0.1497
     11 C           2.4560   -0.2520    0.0975 C.ar    1  UNL1        0.0861
     12 C           2.6533    0.4899   -1.0763 C.ar    1  UNL1       -0.0345
     13 C           3.9437    0.6677   -1.5796 C.ar    1  UNL1       -0.0597
     14 C           5.0365    0.1089   -0.9170 C.ar    1  UNL1       -0.0616
     15 C           4.8446   -0.6296    0.2506 C.ar    1  UNL1       -0.0597
     16 C           3.5575   -0.8123    0.7607 C.ar    1  UNL1       -0.0345
     17 N           0.9079   -1.1461    1.7458 N.ar    1  UNL1       -0.1549
     18 C          -0.4183   -1.0606    1.8513 C.ar    1  UNL1        0.0776
     19 H          -5.5323   -0.3788    1.7178 H       1  UNL1        0.0646
     20 H          -3.2010   -0.9872    2.2354 H       1  UNL1        0.0625
     21 H          -4.2574    1.7472   -1.7724 H       1  UNL1        0.0646
     22 H          -1.9006    1.1606   -1.2929 H       1  UNL1        0.0625
     23 H           1.8140    0.9339   -1.6080 H       1  UNL1        0.0639
     24 H           4.0962    1.2429   -2.4895 H       1  UNL1        0.0618
     25 H           6.0399    0.2492   -1.3114 H       1  UNL1        0.0618
     26 H           5.6981   -1.0642    0.7651 H       1  UNL1        0.0618
     27 H           3.4288   -1.3917    1.6729 H       1  UNL1        0.0639
     28 H          -0.9141   -1.5436    2.6811 H       1  UNL1        0.0870
@<TRIPOS>BOND
     1     1     2    1
     2     2     3   ar
     3     3     4   ar
     4     2     5   ar
     5     5     6   ar
     6     6     7   ar
     7     7     8    1
     8     8     9   ar
     9     9    10   ar
    10    10    11    1
    11    11    12   ar
    12    12    13   ar
    13    13    14   ar
    14    14    15   ar
    15    15    16   ar
    16    10    17   ar
    17    17    18   ar
    18     7     4   ar
    19    18     8   ar
    20    16    11   ar
    21     3    19    1
    22     4    20    1
    23     5    21    1
    24     6    22    1
    25    12    23    1
    26    13    24    1
    27    14    25    1
    28    15    26    1
    29    16    27    1
    30    18    28    1
