@<TRIPOS>MOLECULE
*****
 32 34 0 0 0
SMALL
GASTEIGER

@<TRIPOS>ATOM
      1 F          -6.9955   -0.4456    1.8363 F       1  UNL1       -0.2055
      2 C          -5.8096   -0.3314    1.2245 C.ar    1  UNL1        0.1235
      3 C          -5.7653   -0.1562   -0.1545 C.ar    1  UNL1       -0.0244
      4 C          -4.5307   -0.0367   -0.7967 C.ar    1  UNL1       -0.0318
      5 C          -4.6424   -0.3898    1.9786 C.ar    1  UNL1       -0.0244
      6 C          -3.4034   -0.2712    1.3449 C.ar    1  UNL1       -0.0318
      7 C          -3.3440   -0.0939   -0.0473 C.ar    1  UNL1        0.0863
      8 N          -2.0859    0.0273   -0.6962 N.ar    1  UNL1       -0.1497
      9 N          -0.9153   -0.0225   -0.0105 N.ar    1  UNL1       -0.1471
     10 C           0.0121    0.1276   -0.9708 C.ar    1  UNL1        0.1130
     11 C          -0.6601    0.2621   -2.2053 C.ar    1  UNL1        0.0776
     12 N          -1.9816    0.1997   -2.0385 N.ar    1  UNL1       -0.1549
     13 C           1.4478    0.1366   -0.6856 C.ar    1  UNL1        0.0039
     14 C           2.3935    0.2949   -1.7067 C.ar    1  UNL1       -0.0490
     15 C           3.7623    0.3008   -1.4135 C.ar    1  UNL1       -0.0193
     16 C           4.2148    0.1498   -0.1019 C.ar    1  UNL1        0.1201
     17 O           5.5740    0.1744    0.0410 O.3     1  UNL1       -0.4951
     18 C           6.0841    0.0242    1.3601 C.3     1  UNL1        0.0788
     19 C           3.2833   -0.0083    0.9214 C.ar    1  UNL1       -0.0193
     20 C           1.9125   -0.0145    0.6300 C.ar    1  UNL1       -0.0490
     21 H          -6.6905   -0.1139   -0.7207 H       1  UNL1        0.0647
     22 H          -4.5078    0.1001   -1.8764 H       1  UNL1        0.0640
     23 H          -4.7041   -0.5272    3.0536 H       1  UNL1        0.0647
     24 H          -2.4965   -0.3184    1.9449 H       1  UNL1        0.0640
     25 H          -0.2581    0.3999   -3.1990 H       1  UNL1        0.0870
     26 H           2.0951    0.4162   -2.7441 H       1  UNL1        0.0625
     27 H           4.4840    0.4248   -2.2180 H       1  UNL1        0.0654
     28 H           7.1761    0.0656    1.3028 H       1  UNL1        0.0660
     29 H           5.8094   -0.9486    1.7812 H       1  UNL1        0.0660
     30 H           5.7532    0.8435    2.0069 H       1  UNL1        0.0660
     31 H           3.5827   -0.1294    1.9571 H       1  UNL1        0.0654
     32 H           1.2060   -0.1398    1.4492 H       1  UNL1        0.0625
@<TRIPOS>BOND
     1     1     2    1
     2     2     3   ar
     3     3     4   ar
     4     2     5   ar
     5     5     6   ar
     6     6     7   ar
     7     7     8    1
     8     8     9   ar
     9     9    10   ar
    10    10    11   ar
    11    11    12   ar
    12    10    13    1
    13    13    14   ar
    14    14    15   ar
    15    15    16   ar
    16    16    17    1
    17    17    18    1
    18    16    19   ar
    19    19    20   ar
    20     7     4   ar
    21    12     8   ar
    22    20    13   ar
    23     3    21    1
    24     4    22    1
    25     5    23    1
    26     6    24    1
    27    11    25    1
    28    14    26    1
    29    15    27    1
    30    18    28    1
    31    18    29    1
    32    18    30    1
    33    19    31    1
    34    20    32    1
