@<TRIPOS>MOLECULE
*****
 28 30 0 0 0
SMALL
GASTEIGER

@<TRIPOS>ATOM
      1 F           6.3020    0.1631   -1.4894 F       1  UNL1       -0.2055
      2 C           5.0489    0.0467   -1.0313 C.ar    1  UNL1        0.1235
      3 C           3.9875    0.4576   -1.8305 C.ar    1  UNL1       -0.0244
      4 C           2.6790    0.3380   -1.3570 C.ar    1  UNL1       -0.0318
      5 C           4.8302   -0.4833    0.2358 C.ar    1  UNL1       -0.0244
      6 C           3.5251   -0.6066    0.7176 C.ar    1  UNL1       -0.0318
      7 C           2.4436   -0.1955   -0.0790 C.ar    1  UNL1        0.0863
      8 N           1.1142   -0.3190    0.4068 N.ar    1  UNL1       -0.1497
      9 N           0.0411    0.0658   -0.3297 N.ar    1  UNL1       -0.1471
     10 C          -1.0005   -0.2118    0.4723 C.ar    1  UNL1        0.1130
     11 C          -0.4905   -0.7587    1.6702 C.ar    1  UNL1        0.0776
     12 N           0.8407   -0.8286    1.6349 N.ar    1  UNL1       -0.1549
     13 C          -2.3880    0.0446    0.0816 C.ar    1  UNL1        0.0037
     14 C          -3.4552   -0.2563    0.9418 C.ar    1  UNL1       -0.0525
     15 C          -4.7763   -0.0061    0.5558 C.ar    1  UNL1       -0.0611
     16 C          -5.0479    0.5473   -0.6931 C.ar    1  UNL1       -0.0617
     17 C          -4.0008    0.8517   -1.5585 C.ar    1  UNL1       -0.0611
     18 C          -2.6807    0.6021   -1.1736 C.ar    1  UNL1       -0.0525
     19 H           4.1847    0.8680   -2.8160 H       1  UNL1        0.0647
     20 H           1.8559    0.6628   -1.9908 H       1  UNL1        0.0640
     21 H           5.6757   -0.7968    0.8402 H       1  UNL1        0.0647
     22 H           3.3655   -1.0227    1.7108 H       1  UNL1        0.0640
     23 H          -1.0150   -1.1028    2.5501 H       1  UNL1        0.0870
     24 H          -3.2852   -0.6887    1.9239 H       1  UNL1        0.0624
     25 H          -5.5939   -0.2440    1.2319 H       1  UNL1        0.0618
     26 H          -6.0749    0.7413   -0.9921 H       1  UNL1        0.0618
     27 H          -4.2074    1.2838   -2.5343 H       1  UNL1        0.0618
     28 H          -1.8778    0.8480   -1.8663 H       1  UNL1        0.0624
@<TRIPOS>BOND
     1     1     2    1
     2     2     3   ar
     3     3     4   ar
     4     2     5   ar
     5     5     6   ar
     6     6     7   ar
     7     7     8    1
     8     8     9   ar
     9     9    10   ar
    10    10    11   ar
    11    11    12   ar
    12    10    13    1
    13    13    14   ar
    14    14    15   ar
    15    15    16   ar
    16    16    17   ar
    17    17    18   ar
    18     7     4   ar
    19    12     8   ar
    20    18    13   ar
    21     3    19    1
    22     4    20    1
    23     5    21    1
    24     6    22    1
    25    11    23    1
    26    14    24    1
    27    15    25    1
    28    16    26    1
    29    17    27    1
    30    18    28    1
