@<TRIPOS>MOLECULE
*****
 29 31 0 0 0
SMALL
GASTEIGER

@<TRIPOS>ATOM
      1 F          -2.4768   -1.8628   -2.9580 F       1  UNL1       -0.1659
      2 C          -3.0458   -1.6784   -1.7349 C.3     1  UNL1        0.4175
      3 C          -2.1728   -0.8805   -0.7947 C.ar    1  UNL1        0.0560
      4 C          -2.7414   -0.0209    0.1583 C.ar    1  UNL1       -0.0384
      5 C          -1.9346    0.7078    1.0466 C.ar    1  UNL1        0.0560
      6 C          -2.5539    1.6573    2.0459 C.3     1  UNL1        0.4175
      7 F          -1.7967    1.8227    3.1655 F       1  UNL1       -0.1659
      8 F          -2.7463    2.9008    1.5303 F       1  UNL1       -0.1659
      9 F          -3.7742    1.2382    2.4829 F       1  UNL1       -0.1659
     10 C          -0.5393    0.5687    0.9673 C.ar    1  UNL1       -0.0409
     11 C           0.0520   -0.2931    0.0327 C.ar    1  UNL1        0.0016
     12 C           1.5201   -0.4318   -0.0307 C.ar    1  UNL1        0.0778
     13 C           2.0791   -1.6467    0.1285 C.ar    1  UNL1       -0.0173
     14 C           3.5644   -1.6943    0.0625 C.ar    1  UNL1        0.0335
     15 N           4.3604   -0.6898   -0.1275 N.ar    1  UNL1       -0.2190
     16 C           3.7590    0.5268   -0.2796 C.ar    1  UNL1        0.2533
     17 N           4.3101    1.7035   -0.4812 N.ar    1  UNL1       -0.1974
     18 C           3.2464    2.5453   -0.5547 C.ar    1  UNL1        0.1406
     19 N           2.0470    1.9851   -0.4095 N.ar    1  UNL1       -0.1518
     20 N           2.3628    0.6747   -0.2334 N.ar    1  UNL1       -0.1963
     21 C          -0.7749   -1.0142   -0.8416 C.ar    1  UNL1       -0.0409
     22 F          -4.2551   -1.0991   -1.9669 F       1  UNL1       -0.1659
     23 F          -3.3095   -2.9236   -1.2530 F       1  UNL1       -0.1659
     24 H          -3.8268    0.0877    0.2067 H       1  UNL1        0.0629
     25 H           0.0895    1.1487    1.6451 H       1  UNL1        0.0630
     26 H           1.5384   -2.5664    0.3072 H       1  UNL1        0.0654
     27 H           4.0027   -2.6985    0.1921 H       1  UNL1        0.0831
     28 H           3.3496    3.6106   -0.7198 H       1  UNL1        0.1066
     29 H          -0.3334   -1.6779   -1.5860 H       1  UNL1        0.0630
@<TRIPOS>BOND
     1     1     2    1
     2     2     3    1
     3     3     4   ar
     4     4     5   ar
     5     5     6    1
     6     6     7    1
     7     6     8    1
     8     6     9    1
     9     5    10   ar
    10    10    11   ar
    11    11    12    1
    12    12    13   ar
    13    13    14   ar
    14    14    15   ar
    15    15    16   ar
    16    16    17   ar
    17    17    18   ar
    18    18    19   ar
    19    19    20   ar
    20    11    21   ar
    21     2    22    1
    22     2    23    1
    23    21     3   ar
    24    20    12   ar
    25    20    16   ar
    26     4    24    1
    27    10    25    1
    28    13    26    1
    29    14    27    1
    30    18    28    1
    31    21    29    1
