@<TRIPOS>MOLECULE
*****
 30 32 0 0 0
SMALL
GASTEIGER

@<TRIPOS>ATOM
      1 F          -1.7041    3.4752   -0.4910 F       1  UNL1       -0.1659
      2 C          -2.6813    2.5296   -0.5723 C.3     1  UNL1        0.4175
      3 C          -2.1839    1.1494   -0.2101 C.ar    1  UNL1        0.0560
      4 C          -3.0249    0.2275    0.4336 C.ar    1  UNL1       -0.0384
      5 C          -2.5759   -1.0660    0.7444 C.ar    1  UNL1        0.0560
      6 C          -3.4950   -2.0651    1.4079 C.3     1  UNL1        0.4175
      7 F          -4.1785   -2.8188    0.5056 F       1  UNL1       -0.1659
      8 F          -4.4375   -1.4733    2.1937 F       1  UNL1       -0.1659
      9 F          -2.8367   -2.9412    2.2153 F       1  UNL1       -0.1659
     10 C          -1.2675   -1.4321    0.3896 C.ar    1  UNL1       -0.0394
     11 C          -0.4051   -0.5256   -0.2427 C.ar    1  UNL1        0.0207
     12 C           0.9430   -0.9573   -0.6068 C.ar    1  UNL1        0.1685
     13 N           1.2341   -2.0971   -1.2113 N.ar    1  UNL1       -0.1285
     14 N           2.5922   -2.1588   -1.4132 N.ar    1  UNL1       -0.1291
     15 C           3.1213   -1.0713   -0.9023 C.ar    1  UNL1        0.1613
     16 N           2.1229   -0.2783   -0.3508 N.ar    1  UNL1       -0.2825
     17 C           2.3901    0.9196    0.3185 C.ar    1  UNL1        0.0132
     18 C           3.6603    1.3497    0.4144 C.ar    1  UNL1       -0.0450
     19 C           4.7228    0.5543   -0.1818 C.ar    1  UNL1       -0.0569
     20 C           4.4623   -0.6083   -0.8108 C.ar    1  UNL1       -0.0170
     21 C          -0.8793    0.7556   -0.5542 C.ar    1  UNL1       -0.0394
     22 F          -3.6874    2.9641    0.2349 F       1  UNL1       -0.1659
     23 F          -3.1608    2.5906   -1.8430 F       1  UNL1       -0.1659
     24 H          -4.0459    0.5175    0.6903 H       1  UNL1        0.0629
     25 H          -0.9152   -2.4430    0.6052 H       1  UNL1        0.0630
     26 H           1.5598    1.4609    0.7518 H       1  UNL1        0.0814
     27 H           3.9194    2.2697    0.9286 H       1  UNL1        0.0632
     28 H           5.7412    0.9235   -0.1000 H       1  UNL1        0.0619
     29 H           5.2510   -1.2082   -1.2508 H       1  UNL1        0.0655
     30 H          -0.2413    1.4570   -1.0928 H       1  UNL1        0.0630
@<TRIPOS>BOND
     1     1     2    1
     2     2     3    1
     3     3     4   ar
     4     4     5   ar
     5     5     6    1
     6     6     7    1
     7     6     8    1
     8     6     9    1
     9     5    10   ar
    10    10    11   ar
    11    11    12    1
    12    12    13   ar
    13    13    14   ar
    14    14    15   ar
    15    15    16   ar
    16    16    17   ar
    17    17    18   ar
    18    18    19   ar
    19    19    20   ar
    20    11    21   ar
    21     2    22    1
    22     2    23    1
    23    21     3   ar
    24    16    12   ar
    25    20    15   ar
    26     4    24    1
    27    10    25    1
    28    17    26    1
    29    18    27    1
    30    19    28    1
    31    20    29    1
    32    21    30    1
