@<TRIPOS>MOLECULE
*****
 29 31 0 0 0
SMALL
GASTEIGER

@<TRIPOS>ATOM
      1 F          -2.1720   -3.8646    0.4116 F       1  UNL1       -0.1659
      2 C          -2.9948   -2.7971    0.6050 C.3     1  UNL1        0.4175
      3 F          -3.2336   -2.7429    1.9436 F       1  UNL1       -0.1659
      4 F          -4.1812   -3.1332    0.0261 F       1  UNL1       -0.1659
      5 C          -2.4224   -1.5047    0.0730 C.ar    1  UNL1        0.0560
      6 C          -1.0422   -1.2555    0.1580 C.ar    1  UNL1       -0.0393
      7 C          -0.4912   -0.0518   -0.3064 C.ar    1  UNL1        0.0220
      8 C           0.9453    0.2029   -0.2145 C.ar    1  UNL1        0.1838
      9 N           1.8234   -0.6682    0.3021 N.ar    1  UNL1       -0.1437
     10 N           2.9960   -0.0114    0.1759 N.ar    1  UNL1       -0.2036
     11 C           4.2707   -0.4246    0.5436 C.ar    1  UNL1        0.0344
     12 C           5.3204    0.3811    0.3334 C.ar    1  UNL1       -0.0252
     13 C           4.9937    1.6910   -0.2997 C.ar    1  UNL1        0.0329
     14 N           3.8149    2.1039   -0.6535 N.ar    1  UNL1       -0.2190
     15 C           2.7838    1.2384   -0.4141 C.ar    1  UNL1        0.2533
     16 N           1.5011    1.3762   -0.6598 N.ar    1  UNL1       -0.1892
     17 C          -1.3455    0.9128   -0.8610 C.ar    1  UNL1       -0.0393
     18 C          -2.7293    0.6903   -0.9584 C.ar    1  UNL1        0.0560
     19 C          -3.6312    1.7562   -1.5347 C.3     1  UNL1        0.4175
     20 F          -3.0657    2.4307   -2.5729 F       1  UNL1       -0.1659
     21 F          -3.9725    2.6970   -0.6127 F       1  UNL1       -0.1659
     22 F          -4.8060    1.2577   -2.0123 F       1  UNL1       -0.1659
     23 C          -3.2573   -0.5188   -0.4774 C.ar    1  UNL1       -0.0384
     24 H          -0.3901   -2.0134    0.5946 H       1  UNL1        0.0630
     25 H           4.3447   -1.4055    0.9933 H       1  UNL1        0.0832
     26 H           6.3433    0.1428    0.5867 H       1  UNL1        0.0648
     27 H           5.8598    2.3524   -0.4716 H       1  UNL1        0.0831
     28 H          -0.9293    1.8548   -1.2231 H       1  UNL1        0.0630
     29 H          -4.3330   -0.6963   -0.5351 H       1  UNL1        0.0629
@<TRIPOS>BOND
     1     1     2    1
     2     2     3    1
     3     2     4    1
     4     2     5    1
     5     5     6   ar
     6     6     7   ar
     7     7     8    1
     8     8     9   ar
     9     9    10   ar
    10    10    11   ar
    11    11    12   ar
    12    12    13   ar
    13    13    14   ar
    14    14    15   ar
    15    15    16   ar
    16     7    17   ar
    17    17    18   ar
    18    18    19    1
    19    19    20    1
    20    19    21    1
    21    19    22    1
    22    18    23   ar
    23    23     5   ar
    24    16     8   ar
    25    15    10   ar
    26     6    24    1
    27    11    25    1
    28    12    26    1
    29    13    27    1
    30    17    28    1
    31    23    29    1
