@<TRIPOS>MOLECULE
*****
 49 53 0 0 0
SMALL
GASTEIGER

@<TRIPOS>ATOM
      1 F           5.1907   -1.2419   -3.4533 F       1  UNL1       -0.1659
      2 C           5.8183   -0.3429   -2.6458 C.3     1  UNL1        0.4175
      3 F           7.0902   -0.8047   -2.4924 F       1  UNL1       -0.1659
      4 F           5.9201    0.8053   -3.3690 F       1  UNL1       -0.1659
      5 C           5.1030   -0.1290   -1.3328 C.ar    1  UNL1        0.0559
      6 C           3.6989   -0.1565   -1.2801 C.ar    1  UNL1       -0.0424
      7 C           3.0030    0.0606   -0.0795 C.ar    1  UNL1       -0.0168
      8 C           1.5317    0.0275   -0.0400 C.ar    1  UNL1       -0.0177
      9 C           0.7676    0.8307   -0.9041 C.ar    1  UNL1       -0.0523
     10 C          -0.6296    0.8012   -0.8684 C.ar    1  UNL1       -0.0394
     11 C          -1.2948   -0.0364    0.0363 C.ar    1  UNL1        0.0389
     12 N          -2.7315   -0.0691    0.0749 N.pl3   1  UNL1       -0.2671
     13 C          -3.4189    0.8533    0.9572 C.ar    1  UNL1        0.0525
     14 C          -2.6849    1.7636    1.7602 C.ar    1  UNL1       -0.0389
     15 C          -3.3053    2.6705    2.6250 C.ar    1  UNL1       -0.0599
     16 C          -4.6862    2.6981    2.7168 C.ar    1  UNL1       -0.0606
     17 C          -5.4364    1.8182    1.9429 C.ar    1  UNL1       -0.0462
     18 C          -4.8189    0.9006    1.0682 C.ar    1  UNL1        0.0344
     19 S          -5.9261   -0.1425    0.1614 S.3     1  UNL1       -0.0857
     20 C          -4.8229   -1.1345   -0.8057 C.ar    1  UNL1        0.0344
     21 C          -5.4441   -2.0802   -1.6471 C.ar    1  UNL1       -0.0462
     22 C          -4.6973   -2.9255   -2.4618 C.ar    1  UNL1       -0.0606
     23 C          -3.3162   -2.8345   -2.4447 C.ar    1  UNL1       -0.0599
     24 C          -2.6921   -1.8994   -1.6133 C.ar    1  UNL1       -0.0389
     25 C          -3.4226   -1.0229   -0.7704 C.ar    1  UNL1        0.0525
     26 C          -0.5446   -0.8419    0.9030 C.ar    1  UNL1       -0.0394
     27 C           0.8523   -0.8081    0.8633 C.ar    1  UNL1       -0.0523
     28 C           3.7513    0.3132    1.0821 C.ar    1  UNL1       -0.0424
     29 C           5.1559    0.3478    1.0603 C.ar    1  UNL1        0.0559
     30 C           5.9289    0.6519    2.3217 C.3     1  UNL1        0.4175
     31 F           6.0800    1.9890    2.5240 F       1  UNL1       -0.1659
     32 F           5.3288    0.1663    3.4435 F       1  UNL1       -0.1659
     33 F           7.1860    0.1281    2.3159 F       1  UNL1       -0.1659
     34 C           5.8209    0.1358   -0.1568 C.ar    1  UNL1       -0.0384
     35 H           3.1391   -0.3627   -2.1937 H       1  UNL1        0.0629
     36 H           1.2572    1.4998   -1.6091 H       1  UNL1        0.0624
     37 H          -1.2033    1.4323   -1.5429 H       1  UNL1        0.0636
     38 H          -1.5985    1.7879    1.7304 H       1  UNL1        0.0637
     39 H          -2.7027    3.3503    3.2219 H       1  UNL1        0.0618
     40 H          -5.1804    3.3979    3.3850 H       1  UNL1        0.0618
     41 H          -6.5216    1.8509    2.0252 H       1  UNL1        0.0629
     42 H          -6.5295   -2.1627   -1.6707 H       1  UNL1        0.0629
     43 H          -5.1943   -3.6479   -3.1034 H       1  UNL1        0.0618
     44 H          -2.7162   -3.4866   -3.0743 H       1  UNL1        0.0618
     45 H          -1.6057   -1.8739   -1.6422 H       1  UNL1        0.0637
     46 H          -1.0520   -1.4974    1.6067 H       1  UNL1        0.0636
     47 H           1.4091   -1.4532    1.5404 H       1  UNL1        0.0624
     48 H           3.2319    0.4996    2.0234 H       1  UNL1        0.0629
     49 H           6.9114    0.1741   -0.1884 H       1  UNL1        0.0629
@<TRIPOS>BOND
     1     1     2    1
     2     2     3    1
     3     2     4    1
     4     2     5    1
     5     5     6   ar
     6     6     7   ar
     7     7     8    1
     8     8     9   ar
     9     9    10   ar
    10    10    11   ar
    11    11    12    1
    12    12    13    1
    13    13    14   ar
    14    14    15   ar
    15    15    16   ar
    16    16    17   ar
    17    17    18   ar
    18    18    19    1
    19    19    20    1
    20    20    21   ar
    21    21    22   ar
    22    22    23   ar
    23    23    24   ar
    24    24    25   ar
    25    11    26   ar
    26    26    27   ar
    27     7    28   ar
    28    28    29   ar
    29    29    30    1
    30    30    31    1
    31    30    32    1
    32    30    33    1
    33    29    34   ar
    34    34     5   ar
    35    27     8   ar
    36    25    12    1
    37    18    13   ar
    38    25    20   ar
    39     6    35    1
    40     9    36    1
    41    10    37    1
    42    14    38    1
    43    15    39    1
    44    16    40    1
    45    17    41    1
    46    21    42    1
    47    22    43    1
    48    23    44    1
    49    24    45    1
    50    26    46    1
    51    27    47    1
    52    28    48    1
    53    34    49    1
