@<TRIPOS>MOLECULE
*****
 32 34 0 0 0
SMALL
GASTEIGER

@<TRIPOS>ATOM
      1 F           0.2781   -3.3527    2.4354 F       1  UNL1       -0.1644
      2 C          -0.9311   -2.8058    2.1235 C.3     1  UNL1        0.4344
      3 F          -1.4065   -2.2838    3.2933 F       1  UNL1       -0.1644
      4 F          -1.7553   -3.8513    1.8301 F       1  UNL1       -0.1644
      5 C          -0.8724   -1.7779    1.0085 C.ar    1  UNL1        0.1492
      6 C          -1.8626   -0.8179    0.9227 C.ar    1  UNL1       -0.0050
      7 C          -1.7624    0.0779   -0.1191 C.ar    1  UNL1        0.0831
      8 C          -2.7196    1.1723   -0.3695 C.ar    1  UNL1        0.0377
      9 C          -2.7391    2.0588   -1.4367 C.ar    1  UNL1       -0.0455
     10 C          -3.8057    3.0007   -1.3690 C.ar    1  UNL1       -0.0541
     11 C          -4.5792    2.8149   -0.2480 C.ar    1  UNL1       -0.0237
     12 S          -4.0174    1.5167    0.7075 S.2     1  UNL1       -0.0951
     13 N          -0.7563    0.0211   -1.0166 N.ar    1  UNL1       -0.2140
     14 C           0.1588   -0.9390   -0.8758 C.ar    1  UNL1        0.2166
     15 N           1.1605   -0.9622   -1.8309 N.pl3   1  UNL1       -0.3063
     16 C           2.4692   -1.3646   -1.3410 C.3     1  UNL1        0.0699
     17 C           3.1368   -0.3889   -0.4308 C.ar    1  UNL1        0.1218
     18 C           3.4126   -0.3903    0.9209 C.ar    1  UNL1       -0.0192
     19 C           4.0555    0.8399    1.1973 C.ar    1  UNL1       -0.0236
     20 C           4.1280    1.5127    0.0002 C.ar    1  UNL1        0.0921
     21 O           3.5716    0.7757   -0.9953 O.2     1  UNL1       -0.4662
     22 N           0.1350   -1.8467    0.1039 N.ar    1  UNL1       -0.2105
     23 H          -2.6674   -0.7880    1.6465 H       1  UNL1        0.0660
     24 H          -2.0092    2.0268   -2.2381 H       1  UNL1        0.0629
     25 H          -3.9926    3.7726   -2.1054 H       1  UNL1        0.0623
     26 H          -5.4489    3.3806    0.0573 H       1  UNL1        0.0693
     27 H           1.1637   -0.0404   -2.2558 H       1  UNL1        0.1494
     28 H           2.4281   -2.3554   -0.8703 H       1  UNL1        0.0543
     29 H           3.1170   -1.4944   -2.2174 H       1  UNL1        0.0543
     30 H           3.1701   -1.1817    1.6170 H       1  UNL1        0.0652
     31 H           4.4182    1.1957    2.1513 H       1  UNL1        0.0649
     32 H           4.5223    2.4749   -0.2957 H       1  UNL1        0.1029
@<TRIPOS>BOND
     1     1     2    1
     2     2     3    1
     3     2     4    1
     4     2     5    1
     5     5     6   ar
     6     6     7   ar
     7     7     8    1
     8     8     9   ar
     9     9    10   ar
    10    10    11   ar
    11    11    12   ar
    12     7    13   ar
    13    13    14   ar
    14    14    15    1
    15    15    16    1
    16    16    17    1
    17    17    18   ar
    18    18    19   ar
    19    19    20   ar
    20    20    21   ar
    21    14    22   ar
    22    22     5   ar
    23    12     8   ar
    24    21    17   ar
    25     6    23    1
    26     9    24    1
    27    10    25    1
    28    11    26    1
    29    15    27    1
    30    16    28    1
    31    16    29    1
    32    18    30    1
    33    19    31    1
    34    20    32    1
