@<TRIPOS>MOLECULE
*****
 31 32 0 0 0
SMALL
GASTEIGER

@<TRIPOS>ATOM
      1 F           1.7358    2.4904    0.7565 F       1  UNL1       -0.1658
      2 C           2.9106    1.9620    1.2143 C.3     1  UNL1        0.4191
      3 F           3.8593    2.9007    0.9375 F       1  UNL1       -0.1658
      4 F           2.7976    1.9337    2.5701 F       1  UNL1       -0.1658
      5 C           3.2256    0.6094    0.6293 C.ar    1  UNL1        0.0759
      6 C           4.5777    0.2053    0.6025 C.ar    1  UNL1       -0.0483
      7 C           4.9447   -1.0414    0.1043 C.ar    1  UNL1       -0.0611
      8 C           3.9661   -1.8992   -0.3786 C.ar    1  UNL1       -0.0600
      9 C           2.6221   -1.5170   -0.3506 C.ar    1  UNL1       -0.0400
     10 C           2.2284   -0.2789    0.1747 C.ar    1  UNL1        0.0443
     11 N           0.8694    0.1274    0.1694 N.am    1  UNL1       -0.2962
     12 C          -0.3110   -0.6239    0.2497 C.2     1  UNL1        0.1388
     13 S          -0.4334   -2.2017    0.7910 S.2     1  UNL1       -0.0182
     14 N          -1.3611    0.1872   -0.1937 N.am    1  UNL1       -0.2966
     15 C          -2.7621    0.0658   -0.0543 C.ar    1  UNL1        0.0340
     16 C          -3.3928   -0.6475    0.9673 C.ar    1  UNL1       -0.0404
     17 C          -4.7892   -0.6928    1.0512 C.ar    1  UNL1       -0.0586
     18 C          -5.5695   -0.0095    0.1222 C.ar    1  UNL1       -0.0433
     19 C          -4.9473    0.7263   -0.8808 C.ar    1  UNL1        0.0427
     20 CL         -5.9022    1.5892   -2.0239 Cl      1  UNL1       -0.0835
     21 C          -3.5546    0.7743   -0.9672 C.ar    1  UNL1       -0.0222
     22 H           5.3547    0.8722    0.9763 H       1  UNL1        0.0624
     23 H           5.9900   -1.3398    0.0868 H       1  UNL1        0.0618
     24 H           4.2428   -2.8685   -0.7868 H       1  UNL1        0.0618
     25 H           1.9007   -2.2023   -0.7861 H       1  UNL1        0.0636
     26 H           0.7020    1.1146    0.3482 H       1  UNL1        0.1538
     27 H          -1.0623    0.8662   -0.8842 H       1  UNL1        0.1538
     28 H          -2.8285   -1.1546    1.7429 H       1  UNL1        0.0636
     29 H          -5.2633   -1.2564    1.8514 H       1  UNL1        0.0619
     30 H          -6.6531   -0.0472    0.1918 H       1  UNL1        0.0632
     31 H          -3.0970    1.3562   -1.7625 H       1  UNL1        0.0651
@<TRIPOS>BOND
     1     1     2    1
     2     2     3    1
     3     2     4    1
     4     2     5    1
     5     5     6   ar
     6     6     7   ar
     7     7     8   ar
     8     8     9   ar
     9     9    10   ar
    10    10    11    1
    11    11    12    1
    12    12    13    2
    13    12    14    1
    14    14    15    1
    15    15    16   ar
    16    16    17   ar
    17    17    18   ar
    18    18    19   ar
    19    19    20    1
    20    19    21   ar
    21    10     5   ar
    22    21    15   ar
    23     6    22    1
    24     7    23    1
    25     8    24    1
    26     9    25    1
    27    11    26    1
    28    14    27    1
    29    16    28    1
    30    17    29    1
    31    18    30    1
    32    21    31    1
