@<TRIPOS>MOLECULE
*****
 49 53 0 0 0
SMALL
GASTEIGER

@<TRIPOS>ATOM
      1 F           7.7877    2.3091   -0.0204 F       1  UNL1       -0.2021
      2 C           7.1756    1.1234   -0.1540 C.ar    1  UNL1        0.1648
      3 C           5.7809    1.0674   -0.1140 C.ar    1  UNL1        0.1694
      4 C           5.0967   -0.1443   -0.2656 C.ar    1  UNL1        0.0639
      5 C           3.6336   -0.2043   -0.2267 C.ar    1  UNL1        0.0639
      6 C           2.8860   -0.5107   -1.3668 C.ar    1  UNL1        0.1698
      7 C           1.4900   -0.5701   -1.3308 C.ar    1  UNL1        0.1696
      8 F           0.8369   -0.8567   -2.4684 F       1  UNL1       -0.2017
      9 C           0.7711   -0.3266   -0.1514 C.ar    1  UNL1        0.0583
     10 C          -0.7030   -0.3891   -0.1134 C.ar    1  UNL1       -0.0103
     11 C          -1.3995   -1.4928   -0.6705 C.ar    1  UNL1       -0.0532
     12 C          -2.8031   -1.5830   -0.6604 C.ar    1  UNL1       -0.0516
     13 C          -3.5400   -0.5608   -0.0863 C.ar    1  UNL1        0.0092
     14 C          -2.8355    0.5217    0.4650 C.ar    1  UNL1        0.1019
     15 C          -1.4553    0.6409    0.4703 C.ar    1  UNL1       -0.0280
     16 C          -4.9935   -0.4283    0.0342 C.ar    1  UNL1        0.0092
     17 C          -5.9852   -1.3000   -0.3902 C.ar    1  UNL1       -0.0519
     18 C          -7.3309   -0.9651   -0.1682 C.ar    1  UNL1       -0.0582
     19 C          -7.6990    0.2415    0.4669 C.ar    1  UNL1       -0.0486
     20 C          -6.7059    1.1193    0.9107 C.ar    1  UNL1       -0.0329
     21 C          -5.3912    0.7586    0.6757 C.ar    1  UNL1        0.1016
     22 S          -3.9705    1.6931    1.1269 S.O2    1  UNL1        0.0262
     23 O          -3.9220    2.8873    0.3118 O.2     1  UNL1       -0.1643
     24 O          -3.8500    1.6866    2.5682 O.2     1  UNL1       -0.1643
     25 C          -9.1467    0.5518    0.7164 C.3     1  UNL1       -0.0397
     26 C           1.5275   -0.0191    0.9891 C.ar    1  UNL1        0.1696
     27 F           0.9123    0.2107    2.1598 F       1  UNL1       -0.2017
     28 C           2.9237    0.0406    0.9516 C.ar    1  UNL1        0.1698
     29 F           3.5916    0.3241    2.0809 F       1  UNL1       -0.2017
     30 F           3.5148   -0.7417   -2.5301 F       1  UNL1       -0.2017
     31 C           5.8681   -1.2957   -0.4628 C.ar    1  UNL1        0.1694
     32 C           7.2628   -1.2378   -0.5020 C.ar    1  UNL1        0.1648
     33 F           7.9592   -2.3663   -0.7017 F       1  UNL1       -0.2021
     34 C           7.9395   -0.0297   -0.3354 C.ar    1  UNL1        0.0256
     35 C           9.4318    0.0396   -0.4127 C.3     1  UNL1       -0.0341
     36 F           5.2612   -2.4841   -0.6094 F       1  UNL1       -0.2017
     37 F           5.0877    2.2043    0.0555 F       1  UNL1       -0.2017
     38 H          -0.8412   -2.3104   -1.1280 H       1  UNL1        0.0624
     39 H          -3.2853   -2.4490   -1.1047 H       1  UNL1        0.0624
     40 H          -0.9883    1.5164    0.9136 H       1  UNL1        0.0643
     41 H          -5.7432   -2.2346   -0.8872 H       1  UNL1        0.0624
     42 H          -8.1043   -1.6579   -0.4983 H       1  UNL1        0.0620
     43 H          -6.9462    2.0484    1.4185 H       1  UNL1        0.0639
     44 H          -9.7825    0.0940   -0.0490 H       1  UNL1        0.0278
     45 H          -9.4462    0.1728    1.6986 H       1  UNL1        0.0278
     46 H          -9.3244    1.6322    0.6825 H       1  UNL1        0.0278
     47 H           9.8880   -0.9039   -0.0958 H       1  UNL1        0.0279
     48 H           9.7444    0.2541   -1.4391 H       1  UNL1        0.0279
     49 H           9.8214    0.8217    0.2471 H       1  UNL1        0.0279
@<TRIPOS>BOND
     1     1     2    1
     2     2     3   ar
     3     3     4   ar
     4     4     5    1
     5     5     6   ar
     6     6     7   ar
     7     7     8    1
     8     7     9   ar
     9     9    10    1
    10    10    11   ar
    11    11    12   ar
    12    12    13   ar
    13    13    14   ar
    14    14    15   ar
    15    13    16    1
    16    16    17   ar
    17    17    18   ar
    18    18    19   ar
    19    19    20   ar
    20    20    21   ar
    21    21    22    1
    22    22    23    2
    23    22    24    2
    24    19    25    1
    25     9    26   ar
    26    26    27    1
    27    26    28   ar
    28    28    29    1
    29     6    30    1
    30     4    31   ar
    31    31    32   ar
    32    32    33    1
    33    32    34   ar
    34    34    35    1
    35    31    36    1
    36     3    37    1
    37    34     2   ar
    38    28     5   ar
    39    15    10   ar
    40    22    14    1
    41    21    16   ar
    42    11    38    1
    43    12    39    1
    44    15    40    1
    45    17    41    1
    46    18    42    1
    47    20    43    1
    48    25    44    1
    49    25    45    1
    50    25    46    1
    51    35    47    1
    52    35    48    1
    53    35    49    1
