@<TRIPOS>MOLECULE
*****
 41 47 0 0 0
SMALL
GASTEIGER

@<TRIPOS>ATOM
      1 SI          6.7686    0.2868   -0.5795 Si      1  UNL1        0.0000
      2 C           5.4727   -0.6858   -1.5975 C.2     1  UNL1        0.0000
      3 C           4.2230   -0.4859   -1.1237 C.2     1  UNL1        0.0000
      4 C           4.1375    0.3867    0.0116 C.ar    1  UNL1        0.0000
      5 C           5.3603    0.9315    0.4889 C.ar    1  UNL1        0.0000
      6 C           5.2400    1.7627    1.5591 C.ar    1  UNL1        0.0000
      7 S           3.5762    1.8904    2.0013 S.2     1  UNL1        0.0000
      8 C           3.0561    0.8150    0.7447 C.ar    1  UNL1        0.0000
      9 C           1.6429    0.5128    0.6125 C.ar    1  UNL1        0.0000
     10 C           0.6762    1.4534    0.2074 C.ar    1  UNL1        0.0000
     11 C          -0.7013    1.1052    0.0728 C.ar    1  UNL1        0.0000
     12 S          -1.9867    2.1329   -0.4112 S.2     1  UNL1        0.0000
     13 C          -3.1821    0.8853   -0.2787 C.ar    1  UNL1        0.0000
     14 C          -2.6171   -0.3302    0.1356 C.ar    1  UNL1        0.0000
     15 C          -3.4845   -1.4224    0.2803 C.ar    1  UNL1        0.0000
     16 N          -4.8135   -1.3248    0.0344 N.ar    1  UNL1        0.0000
     17 C          -5.3459   -0.1640   -0.3594 C.ar    1  UNL1        0.0000
     18 C          -6.7048   -0.0913   -0.6031 C.ar    1  UNL1        0.0000
     19 C          -7.2621    1.1087   -1.0117 C.ar    1  UNL1        0.0000
     20 N          -6.5533    2.2399   -1.1931 N.ar    1  UNL1        0.0000
     21 C          -5.2265    2.1616   -0.9528 C.ar    1  UNL1        0.0000
     22 C          -4.5792    0.9906   -0.5371 C.ar    1  UNL1        0.0000
     23 C          -1.2150   -0.1585    0.3213 C.ar    1  UNL1        0.0000
     24 C          -0.2513   -1.1469    0.7429 C.ar    1  UNL1        0.0000
     25 C          -0.3941   -2.4628    1.0762 C.ar    1  UNL1        0.0000
     26 N           0.8733   -2.8978    1.4123 N.ar    1  UNL1        0.0000
     27 C           1.7799   -1.8651    1.2856 C.ar    1  UNL1        0.0000
     28 C           1.0966   -0.7471    0.8566 C.ar    1  UNL1        0.0000
     29 H           7.6889   -0.6389    0.1271 H       1  UNL1        0.0000
     30 H           7.4263    1.3262   -1.4098 H       1  UNL1        0.0000
     31 H           5.7697   -1.2956   -2.4353 H       1  UNL1        0.0000
     32 H           3.3427   -0.9435   -1.5612 H       1  UNL1        0.0000
     33 H           5.9989    2.3032    2.1080 H       1  UNL1        0.0000
     34 H           0.9872    2.4730   -0.0159 H       1  UNL1        0.0000
     35 H          -3.1595   -2.4057    0.5932 H       1  UNL1        0.0000
     36 H          -7.3280   -0.9692   -0.4744 H       1  UNL1        0.0000
     37 H          -8.3273    1.1906   -1.2093 H       1  UNL1        0.0000
     38 H          -4.6888    3.0922   -1.1091 H       1  UNL1        0.0000
     39 H          -1.2243   -3.1492    1.1272 H       1  UNL1        0.0000
     40 H           1.1044   -3.8354    1.7158 H       1  UNL1        0.0000
     41 H           2.8239   -2.0289    1.5194 H       1  UNL1        0.0000
@<TRIPOS>BOND
     1     1     2    1
     2     2     3    2
     3     3     4    1
     4     4     5   ar
     5     5     6   ar
     6     6     7   ar
     7     7     8   ar
     8     8     9    1
     9     9    10   ar
    10    10    11   ar
    11    11    12   ar
    12    12    13   ar
    13    13    14   ar
    14    14    15   ar
    15    15    16   ar
    16    16    17   ar
    17    17    18   ar
    18    18    19   ar
    19    19    20   ar
    20    20    21   ar
    21    21    22   ar
    22    14    23   ar
    23    23    24   ar
    24    24    25   ar
    25    25    26   ar
    26    26    27   ar
    27    27    28   ar
    28     5     1    1
    29    28     9   ar
    30     8     4   ar
    31    23    11   ar
    32    28    24   ar
    33    22    13   ar
    34    22    17   ar
    35     1    29    1
    36     1    30    1
    37     2    31    1
    38     3    32    1
    39     6    33    1
    40    10    34    1
    41    15    35    1
    42    18    36    1
    43    19    37    1
    44    21    38    1
    45    25    39    1
    46    26    40    1
    47    27    41    1
