@<TRIPOS>MOLECULE
*****
 42 45 0 0 0
SMALL
GASTEIGER

@<TRIPOS>ATOM
      1 F           5.1698    2.3956   -0.4138 F       1  UNL1       -0.2049
      2 C           5.8012    1.2210   -0.2574 C.ar    1  UNL1        0.1311
      3 C           5.0655    0.0364   -0.0944 C.ar    1  UNL1        0.0173
      4 C           3.5915    0.0268   -0.0976 C.ar    1  UNL1       -0.0151
      5 C           2.8607    0.6535   -1.1172 C.ar    1  UNL1       -0.0534
      6 C           1.4598    0.6348   -1.1241 C.ar    1  UNL1       -0.0534
      7 C           0.7356   -0.0115   -0.1108 C.ar    1  UNL1       -0.0151
      8 C          -0.7381   -0.0210   -0.1142 C.ar    1  UNL1        0.0174
      9 C          -1.4747   -1.2023    0.0518 C.ar    1  UNL1        0.1316
     10 F          -0.8438   -2.3771    0.2095 F       1  UNL1       -0.2048
     11 C          -2.8711   -1.2101    0.0486 C.ar    1  UNL1       -0.0181
     12 C          -3.5948   -0.0228   -0.1216 C.ar    1  UNL1       -0.0151
     13 C          -5.0668   -0.0226   -0.1263 C.ar    1  UNL1       -0.0178
     14 C          -5.7949   -0.6109    0.9215 C.ar    1  UNL1       -0.0540
     15 C          -7.1925   -0.6108    0.9177 C.ar    1  UNL1       -0.0612
     16 C          -7.8869   -0.0226   -0.1360 C.ar    1  UNL1       -0.0617
     17 C          -7.1854    0.5655   -1.1851 C.ar    1  UNL1       -0.0612
     18 C          -5.7877    0.5655   -1.1793 C.ar    1  UNL1       -0.0540
     19 C          -2.8679    1.1663   -0.2860 C.ar    1  UNL1       -0.0533
     20 C          -1.4662    1.1677   -0.2819 C.ar    1  UNL1       -0.0507
     21 C           1.4665   -0.6382    0.9088 C.ar    1  UNL1       -0.0534
     22 C           2.8674   -0.6194    0.9156 C.ar    1  UNL1       -0.0534
     23 C           5.7935   -1.1564    0.0706 C.ar    1  UNL1       -0.0513
     24 C           7.1929   -1.1577    0.0746 C.ar    1  UNL1       -0.0610
     25 C           7.8945    0.0348   -0.0866 C.ar    1  UNL1       -0.0590
     26 C           7.1962    1.2274   -0.2536 C.ar    1  UNL1       -0.0258
     27 H           3.3792    1.1621   -1.9281 H       1  UNL1        0.0624
     28 H           0.9389    1.1249   -1.9443 H       1  UNL1        0.0624
     29 H          -3.3823   -2.1617    0.1675 H       1  UNL1        0.0652
     30 H          -5.2741   -1.0668    1.7614 H       1  UNL1        0.0624
     31 H          -7.7368   -1.0686    1.7397 H       1  UNL1        0.0618
     32 H          -8.9737   -0.0229   -0.1398 H       1  UNL1        0.0618
     33 H          -7.7241    1.0225   -2.0111 H       1  UNL1        0.0618
     34 H          -5.2610    1.0205   -2.0158 H       1  UNL1        0.0624
     35 H          -3.3912    2.1140   -0.4042 H       1  UNL1        0.0624
     36 H          -0.9453    2.1170   -0.3956 H       1  UNL1        0.0625
     37 H           0.9484   -1.1469    1.7199 H       1  UNL1        0.0624
     38 H           3.3888   -1.1094    1.7357 H       1  UNL1        0.0624
     39 H           5.2697   -2.1041    0.1846 H       1  UNL1        0.0624
     40 H           7.7324   -2.0935    0.2007 H       1  UNL1        0.0618
     41 H           8.9814    0.0342   -0.0834 H       1  UNL1        0.0618
     42 H           7.7253    2.1667   -0.3797 H       1  UNL1        0.0646
@<TRIPOS>BOND
     1     1     2    1
     2     2     3   ar
     3     3     4    1
     4     4     5   ar
     5     5     6   ar
     6     6     7   ar
     7     7     8    1
     8     8     9   ar
     9     9    10    1
    10     9    11   ar
    11    11    12   ar
    12    12    13    1
    13    13    14   ar
    14    14    15   ar
    15    15    16   ar
    16    16    17   ar
    17    17    18   ar
    18    12    19   ar
    19    19    20   ar
    20     7    21   ar
    21    21    22   ar
    22     3    23   ar
    23    23    24   ar
    24    24    25   ar
    25    25    26   ar
    26    26     2   ar
    27    22     4   ar
    28    20     8   ar
    29    18    13   ar
    30     5    27    1
    31     6    28    1
    32    11    29    1
    33    14    30    1
    34    15    31    1
    35    16    32    1
    36    17    33    1
    37    18    34    1
    38    19    35    1
    39    20    36    1
    40    21    37    1
    41    22    38    1
    42    23    39    1
    43    24    40    1
    44    25    41    1
    45    26    42    1
