@<TRIPOS>MOLECULE
*****
 42 45 0 0 0
SMALL
GASTEIGER

@<TRIPOS>ATOM
      1 F           5.2077   -0.1995   -2.4417 F       1  UNL1       -0.2049
      2 C           5.8167    0.0819   -1.2787 C.ar    1  UNL1        0.1311
      3 C           5.0601    0.2950   -0.1152 C.ar    1  UNL1        0.0173
      4 C           3.5885    0.2109   -0.1158 C.ar    1  UNL1       -0.0151
      5 C           2.8028    1.2308    0.4430 C.ar    1  UNL1       -0.0534
      6 C           1.4044    1.1488    0.4508 C.ar    1  UNL1       -0.0535
      7 C           0.7399    0.0441   -0.1009 C.ar    1  UNL1       -0.0178
      8 C          -0.7293   -0.0412   -0.0952 C.ar    1  UNL1       -0.0151
      9 C          -1.4600    0.1228    1.0887 C.ar    1  UNL1       -0.0181
     10 C          -2.8541    0.0403    1.0863 C.ar    1  UNL1        0.1316
     11 F          -3.4916    0.2129    2.2553 F       1  UNL1       -0.2048
     12 C          -3.5815   -0.2046   -0.0869 C.ar    1  UNL1        0.0174
     13 C          -5.0531   -0.2904   -0.0914 C.ar    1  UNL1       -0.0151
     14 C          -5.7377   -1.1118    0.8203 C.ar    1  UNL1       -0.0539
     15 C          -7.1328   -1.2001    0.8089 C.ar    1  UNL1       -0.0612
     16 C          -7.8705   -0.4668   -0.1162 C.ar    1  UNL1       -0.0617
     17 C          -7.2147    0.3554   -1.0282 C.ar    1  UNL1       -0.0612
     18 C          -5.8195    0.4420   -1.0153 C.ar    1  UNL1       -0.0539
     19 C          -2.8464   -0.3700   -1.2716 C.ar    1  UNL1       -0.0507
     20 C          -1.4469   -0.2901   -1.2752 C.ar    1  UNL1       -0.0533
     21 C           1.5234   -0.9752   -0.6605 C.ar    1  UNL1       -0.0535
     22 C           2.9217   -0.8930   -0.6674 C.ar    1  UNL1       -0.0534
     23 C           5.7648    0.5920    1.0659 C.ar    1  UNL1       -0.0513
     24 C           7.1618    0.6737    1.0761 C.ar    1  UNL1       -0.0610
     25 C           7.8843    0.4598   -0.0955 C.ar    1  UNL1       -0.0590
     26 C           7.2093    0.1626   -1.2761 C.ar    1  UNL1       -0.0258
     27 H           3.2740    2.1154    0.8673 H       1  UNL1        0.0624
     28 H           0.8359    1.9712    0.8810 H       1  UNL1        0.0624
     29 H          -0.9561    0.3072    2.0337 H       1  UNL1        0.0652
     30 H          -5.1834   -1.6967    1.5521 H       1  UNL1        0.0624
     31 H          -7.6400   -1.8414    1.5249 H       1  UNL1        0.0618
     32 H          -8.9551   -0.5335   -0.1239 H       1  UNL1        0.0618
     33 H          -7.7872    0.9342   -1.7482 H       1  UNL1        0.0618
     34 H          -5.3320    1.1022   -1.7298 H       1  UNL1        0.0624
     35 H          -3.3593   -0.5749   -2.2098 H       1  UNL1        0.0625
     36 H          -0.9187   -0.4157   -2.2193 H       1  UNL1        0.0624
     37 H           1.0515   -1.8564   -1.0908 H       1  UNL1        0.0624
     38 H           3.4897   -1.7106   -1.1080 H       1  UNL1        0.0624
     39 H           5.2257    0.7501    1.9983 H       1  UNL1        0.0624
     40 H           7.6836    0.9017    2.0027 H       1  UNL1        0.0618
     41 H           8.9693    0.5233   -0.0880 H       1  UNL1        0.0618
     42 H           7.7549   -0.0063   -2.1991 H       1  UNL1        0.0646
@<TRIPOS>BOND
     1     1     2    1
     2     2     3   ar
     3     3     4    1
     4     4     5   ar
     5     5     6   ar
     6     6     7   ar
     7     7     8    1
     8     8     9   ar
     9     9    10   ar
    10    10    11    1
    11    10    12   ar
    12    12    13    1
    13    13    14   ar
    14    14    15   ar
    15    15    16   ar
    16    16    17   ar
    17    17    18   ar
    18    12    19   ar
    19    19    20   ar
    20     7    21   ar
    21    21    22   ar
    22     3    23   ar
    23    23    24   ar
    24    24    25   ar
    25    25    26   ar
    26    26     2   ar
    27    22     4   ar
    28    20     8   ar
    29    18    13   ar
    30     5    27    1
    31     6    28    1
    32     9    29    1
    33    14    30    1
    34    15    31    1
    35    16    32    1
    36    17    33    1
    37    18    34    1
    38    19    35    1
    39    20    36    1
    40    21    37    1
    41    22    38    1
    42    23    39    1
    43    24    40    1
    44    25    41    1
    45    26    42    1
