@<TRIPOS>MOLECULE
*****
 23 26 0 0 0
SMALL
GASTEIGER

@<TRIPOS>ATOM
      1 F           4.5388    1.1289    0.0642 F       1  UNL1       -0.1993
      2 C           3.3733    0.4654    0.0508 C.ar    1  UNL1        0.1969
      3 C           2.1777    1.1820    0.0254 C.ar    1  UNL1        0.1712
      4 F           2.1799    2.5207    0.0141 F       1  UNL1       -0.2017
      5 C           0.9961    0.4763    0.0122 C.ar    1  UNL1        0.0505
      6 C           1.0063   -0.9701    0.0245 C.ar    1  UNL1        0.0678
      7 C          -0.3717   -1.4179    0.0059 C.ar    1  UNL1        0.1492
      8 N          -1.1485   -2.4724    0.0022 N.ar    1  UNL1       -0.2348
      9 C          -2.4566   -1.9331   -0.0236 C.ar    1  UNL1        0.0538
     10 C          -2.4380   -0.5475   -0.0350 C.ar    1  UNL1        0.0666
     11 N          -1.1152   -0.2940   -0.0156 N.ar    1  UNL1       -0.2920
     12 C          -0.4210    0.8921   -0.0144 C.ar    1  UNL1        0.0593
     13 C          -1.1618    2.0114   -0.0358 C.ar    1  UNL1       -0.0370
     14 C          -2.6360    1.8396   -0.0583 C.ar    1  UNL1       -0.0578
     15 C          -3.2468    0.6221   -0.0579 C.ar    1  UNL1       -0.0362
     16 C           2.1907   -1.6686    0.0496 C.ar    1  UNL1        0.1727
     17 F           2.2140   -3.0064    0.0613 F       1  UNL1       -0.2016
     18 C           3.3794   -0.9393    0.0628 C.ar    1  UNL1        0.1969
     19 F           4.5523   -1.5894    0.0873 F       1  UNL1       -0.1993
     20 H          -3.3164   -2.5913   -0.0319 H       1  UNL1        0.0851
     21 H          -0.7368    3.0085   -0.0374 H       1  UNL1        0.0638
     22 H          -3.2312    2.7493   -0.0757 H       1  UNL1        0.0619
     23 H          -4.3284    0.5337   -0.0748 H       1  UNL1        0.0639
@<TRIPOS>BOND
     1     1     2    1
     2     2     3   ar
     3     3     4    1
     4     3     5   ar
     5     5     6   ar
     6     6     7   ar
     7     7     8   ar
     8     8     9   ar
     9     9    10   ar
    10    10    11   ar
    11    11    12   ar
    12    12    13   ar
    13    13    14   ar
    14    14    15   ar
    15     6    16   ar
    16    16    17    1
    17    16    18   ar
    18    18    19    1
    19    18     2   ar
    20    12     5   ar
    21    11     7   ar
    22    15    10   ar
    23     9    20    1
    24    13    21    1
    25    14    22    1
    26    15    23    1
