@<TRIPOS>MOLECULE
*****
 38 40 0 0 0
SMALL
GASTEIGER

@<TRIPOS>ATOM
      1 F           6.9478   -0.7206    0.4682 F       1  UNL1       -0.2055
      2 C           5.6432   -0.4290    0.3866 C.ar    1  UNL1        0.1234
      3 C           5.1421    0.6681    1.0755 C.ar    1  UNL1       -0.0259
      4 C           3.7817    0.9730    0.9887 C.ar    1  UNL1       -0.0518
      5 C           2.9198    0.1740    0.2226 C.ar    1  UNL1       -0.0237
      6 C           1.5018    0.5463    0.1343 C.2     1  UNL1       -0.0402
      7 C           0.4903   -0.3378    0.1070 C.2     1  UNL1        0.0025
      8 N          -0.8930   -0.1230    0.0337 N.pl3   1  UNL1       -0.2759
      9 C          -1.4058    1.1041   -0.5143 C.ar    1  UNL1        0.0382
     10 C          -0.9044    1.6367   -1.7145 C.ar    1  UNL1       -0.0400
     11 C          -1.4152    2.8258   -2.2419 C.ar    1  UNL1       -0.0600
     12 C          -2.4375    3.5006   -1.5787 C.ar    1  UNL1       -0.0616
     13 C          -2.9517    2.9873   -0.3903 C.ar    1  UNL1       -0.0600
     14 C          -2.4414    1.7980    0.1361 C.ar    1  UNL1       -0.0400
     15 C          -1.7840   -1.1626    0.4870 C.ar    1  UNL1        0.0382
     16 C          -3.0017   -1.4085   -0.1735 C.ar    1  UNL1       -0.0400
     17 C          -3.8698   -2.4151    0.2595 C.ar    1  UNL1       -0.0600
     18 C          -3.5379   -3.1947    1.3640 C.ar    1  UNL1       -0.0616
     19 C          -2.3398   -2.9687    2.0361 C.ar    1  UNL1       -0.0600
     20 C          -1.4713   -1.9627    1.6015 C.ar    1  UNL1       -0.0400
     21 C           3.4502   -0.9201   -0.4780 C.ar    1  UNL1       -0.0518
     22 C           4.8110   -1.2242   -0.3912 C.ar    1  UNL1       -0.0259
     23 H           5.8105    1.2794    1.6732 H       1  UNL1        0.0646
     24 H           3.3980    1.8348    1.5310 H       1  UNL1        0.0624
     25 H           1.2927    1.6129    0.1301 H       1  UNL1        0.0636
     26 H           0.7217   -1.3994    0.1724 H       1  UNL1        0.0787
     27 H          -0.1218    1.1134   -2.2581 H       1  UNL1        0.0636
     28 H          -1.0167    3.2202   -3.1729 H       1  UNL1        0.0618
     29 H          -2.8349    4.4254   -1.9890 H       1  UNL1        0.0618
     30 H          -3.7486    3.5115    0.1304 H       1  UNL1        0.0618
     31 H          -2.8458    1.4175    1.0713 H       1  UNL1        0.0636
     32 H          -3.2768   -0.8256   -1.0496 H       1  UNL1        0.0636
     33 H          -4.8025   -2.5894   -0.2704 H       1  UNL1        0.0618
     34 H          -4.2131   -3.9766    1.7015 H       1  UNL1        0.0618
     35 H          -2.0806   -3.5701    2.9035 H       1  UNL1        0.0618
     36 H          -0.5557   -1.7911    2.1620 H       1  UNL1        0.0636
     37 H           2.8141   -1.5391   -1.1065 H       1  UNL1        0.0624
     38 H           5.2252   -2.0708   -0.9292 H       1  UNL1        0.0646
@<TRIPOS>BOND
     1     1     2    1
     2     2     3   ar
     3     3     4   ar
     4     4     5   ar
     5     5     6    1
     6     6     7    2
     7     7     8    1
     8     8     9    1
     9     9    10   ar
    10    10    11   ar
    11    11    12   ar
    12    12    13   ar
    13    13    14   ar
    14     8    15    1
    15    15    16   ar
    16    16    17   ar
    17    17    18   ar
    18    18    19   ar
    19    19    20   ar
    20     5    21   ar
    21    21    22   ar
    22    22     2   ar
    23    14     9   ar
    24    20    15   ar
    25     3    23    1
    26     4    24    1
    27     6    25    1
    28     7    26    1
    29    10    27    1
    30    11    28    1
    31    12    29    1
    32    13    30    1
    33    14    31    1
    34    16    32    1
    35    17    33    1
    36    18    34    1
    37    19    35    1
    38    20    36    1
    39    21    37    1
    40    22    38    1
