@<TRIPOS>MOLECULE
*****
 24 26 0 0 0
SMALL
GASTEIGER

@<TRIPOS>ATOM
      1 F           5.1744   -0.2666    0.3491 F       1  UNL1       -0.2055
      2 C           3.8878   -0.1886   -0.0138 C.ar    1  UNL1        0.1234
      3 C           3.4781    0.8227   -0.8734 C.ar    1  UNL1       -0.0258
      4 C           2.1358    0.9017   -1.2512 C.ar    1  UNL1       -0.0483
      5 C           1.2001   -0.0222   -0.7597 C.ar    1  UNL1        0.0198
      6 C           1.6395   -1.0479    0.0919 C.ar    1  UNL1       -0.0483
      7 C           2.9828   -1.1265    0.4690 C.ar    1  UNL1       -0.0258
      8 C          -0.1955    0.0808   -1.1807 C.ar    1  UNL1        0.1685
      9 N          -0.6039    0.2355   -2.4296 N.ar    1  UNL1       -0.1285
     10 N          -1.9781    0.2741   -2.4464 N.ar    1  UNL1       -0.1291
     11 C          -2.3946    0.1749   -1.2052 C.ar    1  UNL1        0.1613
     12 N          -1.3040    0.0749   -0.3507 N.ar    1  UNL1       -0.2825
     13 C          -1.4342    0.0148    1.0399 C.ar    1  UNL1        0.0132
     14 C          -2.6626    0.0233    1.5862 C.ar    1  UNL1       -0.0450
     15 C          -3.8240    0.0952    0.7127 C.ar    1  UNL1       -0.0569
     16 C          -3.6931    0.1705   -0.6262 C.ar    1  UNL1       -0.0170
     17 H           4.2028    1.5375   -1.2500 H       1  UNL1        0.0646
     18 H           1.8190    1.6871   -1.9363 H       1  UNL1        0.0625
     19 H           0.9486   -1.8073    0.4513 H       1  UNL1        0.0625
     20 H           3.3307   -1.9183    1.1251 H       1  UNL1        0.0646
     21 H          -0.5321   -0.0246    1.6360 H       1  UNL1        0.0814
     22 H          -2.8151   -0.0151    2.6600 H       1  UNL1        0.0632
     23 H          -4.8077    0.0928    1.1735 H       1  UNL1        0.0619
     24 H          -4.5548    0.2313   -1.2814 H       1  UNL1        0.0655
@<TRIPOS>BOND
     1     1     2    1
     2     2     3   ar
     3     3     4   ar
     4     4     5   ar
     5     5     6   ar
     6     6     7   ar
     7     5     8    1
     8     8     9   ar
     9     9    10   ar
    10    10    11   ar
    11    11    12   ar
    12    12    13   ar
    13    13    14   ar
    14    14    15   ar
    15    15    16   ar
    16     7     2   ar
    17    12     8   ar
    18    16    11   ar
    19     3    17    1
    20     4    18    1
    21     6    19    1
    22     7    20    1
    23    13    21    1
    24    14    22    1
    25    15    23    1
    26    16    24    1
