@<TRIPOS>MOLECULE
*****
 33 37 0 0 0
SMALL
GASTEIGER

@<TRIPOS>ATOM
      1 F           5.2965   -2.1168    0.3339 F       1  UNL1       -0.2055
      2 C           3.9784   -1.9019    0.2306 C.ar    1  UNL1        0.1240
      3 C           3.4959   -0.5936    0.2724 C.ar    1  UNL1       -0.0180
      4 C           2.1186   -0.3229    0.1675 C.ar    1  UNL1       -0.0026
      5 C           1.2578   -1.4288    0.0194 C.ar    1  UNL1        0.0257
      6 C           1.7562   -2.7434   -0.0214 C.ar    1  UNL1       -0.0478
      7 C           3.1220   -2.9801    0.0847 C.ar    1  UNL1       -0.0257
      8 C          -0.1751   -1.1891   -0.0925 C.ar    1  UNL1        0.1469
      9 N          -1.0987   -2.1139   -0.2344 N.ar    1  UNL1       -0.2272
     10 C          -2.2792   -1.4384   -0.2957 C.ar    1  UNL1        0.0900
     11 C          -3.5668   -1.9808   -0.4453 C.ar    1  UNL1       -0.0342
     12 C          -4.6680   -1.1275   -0.4880 C.ar    1  UNL1       -0.0596
     13 C          -4.4875    0.2456   -0.3832 C.ar    1  UNL1       -0.0597
     14 C          -3.2094    0.8046   -0.2334 C.ar    1  UNL1       -0.0357
     15 C          -2.0942   -0.0543   -0.1897 C.ar    1  UNL1        0.0739
     16 N          -0.7109    0.0944   -0.0571 N.ar    1  UNL1       -0.2915
     17 C           0.1264    1.2490    0.0921 C.ar    1  UNL1        0.0563
     18 C           1.5337    1.0473    0.2041 C.ar    1  UNL1        0.0068
     19 C           2.3453    2.1926    0.3504 C.ar    1  UNL1       -0.0520
     20 C           1.8060    3.4788    0.3857 C.ar    1  UNL1       -0.0611
     21 C           0.4367    3.6543    0.2754 C.ar    1  UNL1       -0.0598
     22 C          -0.3995    2.5471    0.1294 C.ar    1  UNL1       -0.0372
     23 H           4.2348    0.1909    0.3888 H       1  UNL1        0.0652
     24 H           1.0711   -3.5818   -0.1366 H       1  UNL1        0.0626
     25 H           3.5174   -3.9899    0.0545 H       1  UNL1        0.0646
     26 H          -3.6904   -3.0557   -0.5258 H       1  UNL1        0.0639
     27 H          -5.6668   -1.5404   -0.6035 H       1  UNL1        0.0618
     28 H          -5.3550    0.9024   -0.4179 H       1  UNL1        0.0618
     29 H          -3.1411    1.8796   -0.1579 H       1  UNL1        0.0639
     30 H           3.4248    2.1167    0.4414 H       1  UNL1        0.0624
     31 H           2.4597    4.3402    0.4996 H       1  UNL1        0.0618
     32 H           0.0133    4.6557    0.3026 H       1  UNL1        0.0618
     33 H          -1.4520    2.7599    0.0497 H       1  UNL1        0.0638
@<TRIPOS>BOND
     1     1     2    1
     2     2     3   ar
     3     3     4   ar
     4     4     5   ar
     5     5     6   ar
     6     6     7   ar
     7     5     8   ar
     8     8     9   ar
     9     9    10   ar
    10    10    11   ar
    11    11    12   ar
    12    12    13   ar
    13    13    14   ar
    14    10    15   ar
    15    15    16   ar
    16    16    17   ar
    17    17    18   ar
    18    18    19   ar
    19    19    20   ar
    20    20    21   ar
    21    21    22   ar
    22     7     2   ar
    23    18     4   ar
    24    16     8   ar
    25    15    14   ar
    26    22    17   ar
    27     3    23    1
    28     6    24    1
    29     7    25    1
    30    11    26    1
    31    12    27    1
    32    13    28    1
    33    14    29    1
    34    19    30    1
    35    20    31    1
    36    21    32    1
    37    22    33    1
