@<TRIPOS>MOLECULE
*****
 23 26 0 0 0
SMALL
GASTEIGER

@<TRIPOS>ATOM
      1 F          -4.4379   -1.4201    0.3653 F       1  UNL1       -0.2055
      2 C          -3.3219   -0.6872    0.2473 C.ar    1  UNL1        0.1241
      3 C          -2.0888   -1.3403    0.2185 C.ar    1  UNL1       -0.0166
      4 C          -0.9708   -0.5464    0.0962 C.ar    1  UNL1        0.0122
      5 C          -1.0866    0.8954    0.0032 C.ar    1  UNL1        0.0271
      6 C           0.2526    1.4378   -0.1149 C.ar    1  UNL1        0.1463
      7 N           0.9445    2.5448   -0.2332 N.ar    1  UNL1       -0.2349
      8 C           2.2869    2.0987   -0.2830 C.ar    1  UNL1        0.0538
      9 C           2.3730    0.7181   -0.1924 C.ar    1  UNL1        0.0666
     10 N           1.0748    0.3712   -0.0904 N.ar    1  UNL1       -0.2921
     11 C           0.4728   -0.8589    0.0311 C.ar    1  UNL1        0.0565
     12 C           1.2959   -1.9195    0.0552 C.ar    1  UNL1       -0.0371
     13 C           2.7507   -1.6431   -0.0515 C.ar    1  UNL1       -0.0578
     14 C           3.2666   -0.3880   -0.1695 C.ar    1  UNL1       -0.0362
     15 C          -2.3095    1.5288    0.0328 C.ar    1  UNL1       -0.0477
     16 C          -3.4403    0.7150    0.1573 C.ar    1  UNL1       -0.0257
     17 H          -2.0329   -2.4187    0.2899 H       1  UNL1        0.0653
     18 H           3.0939    2.8135   -0.3811 H       1  UNL1        0.0851
     19 H           0.9499   -2.9415    0.1468 H       1  UNL1        0.0638
     20 H           3.4120   -2.5056   -0.0314 H       1  UNL1        0.0619
     21 H           4.3364   -0.2225   -0.2453 H       1  UNL1        0.0639
     22 H          -2.3894    2.6083   -0.0372 H       1  UNL1        0.0626
     23 H          -4.4317    1.1601    0.1860 H       1  UNL1        0.0646
@<TRIPOS>BOND
     1     1     2    1
     2     2     3   ar
     3     3     4   ar
     4     4     5   ar
     5     5     6   ar
     6     6     7   ar
     7     7     8   ar
     8     8     9   ar
     9     9    10   ar
    10    10    11   ar
    11    11    12   ar
    12    12    13   ar
    13    13    14   ar
    14     5    15   ar
    15    15    16   ar
    16    16     2   ar
    17    11     4   ar
    18    10     6   ar
    19    14     9   ar
    20     3    17    1
    21     8    18    1
    22    12    19    1
    23    13    20    1
    24    14    21    1
    25    15    22    1
    26    16    23    1
