@<TRIPOS>MOLECULE
*****
 28 29 0 0 0
SMALL
GASTEIGER

@<TRIPOS>ATOM
      1 F           0.8498    1.0144    2.1267 F       1  UNL1       -0.2048
      2 C           1.4764    0.5082    1.0531 C.ar    1  UNL1        0.1315
      3 C           0.7347    0.0057   -0.0292 C.ar    1  UNL1        0.0200
      4 C          -0.7394   -0.0019   -0.0302 C.ar    1  UNL1       -0.0150
      5 C          -1.4668    0.4965   -1.1240 C.ar    1  UNL1       -0.0537
      6 C          -2.8659    0.4816   -1.1327 C.ar    1  UNL1       -0.0583
      7 C          -1.4665   -0.5107    1.0577 C.ar    1  UNL1       -0.0537
      8 C          -2.8654   -0.5273    1.0520 C.ar    1  UNL1       -0.0583
      9 C          -3.5760   -0.0432   -0.0496 C.ar    1  UNL1       -0.0504
     10 C          -5.0754   -0.0277   -0.0417 C.3     1  UNL1       -0.0397
     11 C           1.4571   -0.4954   -1.1250 C.ar    1  UNL1       -0.0157
     12 C           2.8521   -0.4886   -1.1238 C.ar    1  UNL1        0.1270
     13 F           3.4993   -0.9700   -2.1946 F       1  UNL1       -0.2052
     14 C           3.5789    0.0039   -0.0388 C.ar    1  UNL1       -0.0125
     15 C           5.0756    0.0271   -0.0751 C.3     1  UNL1       -0.0369
     16 C           2.8738    0.5155    1.0535 C.ar    1  UNL1       -0.0202
     17 H          -0.9476    0.9196   -1.9817 H       1  UNL1        0.0624
     18 H          -3.3953    0.8866   -1.9922 H       1  UNL1        0.0620
     19 H          -0.9453   -0.9033    1.9291 H       1  UNL1        0.0624
     20 H          -3.3936   -0.9220    1.9171 H       1  UNL1        0.0620
     21 H          -5.4717   -0.8650    0.5423 H       1  UNL1        0.0278
     22 H          -5.4378    0.9094    0.3922 H       1  UNL1        0.0278
     23 H          -5.4724   -0.1244   -1.0577 H       1  UNL1        0.0278
     24 H           0.9437   -0.9076   -1.9899 H       1  UNL1        0.0653
     25 H           5.4231    0.8701   -0.6804 H       1  UNL1        0.0278
     26 H           5.4666   -0.9036   -0.4992 H       1  UNL1        0.0278
     27 H           5.4942    0.1262    0.9319 H       1  UNL1        0.0278
     28 H           3.3936    0.9259    1.9148 H       1  UNL1        0.0650
@<TRIPOS>BOND
     1     1     2    1
     2     2     3   ar
     3     3     4    1
     4     4     5   ar
     5     5     6   ar
     6     4     7   ar
     7     7     8   ar
     8     8     9   ar
     9     9    10    1
    10     3    11   ar
    11    11    12   ar
    12    12    13    1
    13    12    14   ar
    14    14    15    1
    15    14    16   ar
    16    16     2   ar
    17     9     6   ar
    18     5    17    1
    19     6    18    1
    20     7    19    1
    21     8    20    1
    22    10    21    1
    23    10    22    1
    24    10    23    1
    25    11    24    1
    26    15    25    1
    27    15    26    1
    28    15    27    1
    29    16    28    1
