@<TRIPOS>MOLECULE
*****
 46 50 0 0 0
SMALL
GASTEIGER

@<TRIPOS>ATOM
      1 F           3.6748    1.8948   -1.9094 F       1  UNL1       -0.2048
      2 C           4.1915    1.1366   -0.9298 C.ar    1  UNL1        0.1315
      3 C           3.3458    0.5067   -0.0014 C.ar    1  UNL1        0.0201
      4 C           1.8809    0.6575   -0.0532 C.ar    1  UNL1       -0.0144
      5 C           1.2822    1.9046   -0.1352 C.ar    1  UNL1       -0.0533
      6 C          -0.1094    2.0195   -0.1704 C.ar    1  UNL1       -0.0529
      7 C           1.0264   -0.4574   -0.0140 C.ar    1  UNL1       -0.0456
      8 C          -0.4003   -0.3849   -0.0460 C.ar    1  UNL1       -0.0090
      9 C          -0.9882    0.9031   -0.1256 C.ar    1  UNL1       -0.0095
     10 C          -2.4164    1.0429   -0.1598 C.ar    1  UNL1       -0.0096
     11 C          -3.0602    2.3106   -0.2324 C.ar    1  UNL1       -0.0532
     12 C          -4.4459    2.4680   -0.2685 C.ar    1  UNL1       -0.0582
     13 C          -5.2606    1.3530   -0.2435 C.ar    1  UNL1       -0.0498
     14 C          -6.7535    1.4878   -0.2477 C.3     1  UNL1       -0.0397
     15 C          -4.6562    0.0933   -0.1556 C.ar    1  UNL1       -0.0505
     16 C          -3.2442   -0.1091   -0.1173 C.ar    1  UNL1       -0.0093
     17 C          -2.6509   -1.4140   -0.0374 C.ar    1  UNL1       -0.0096
     18 C          -3.4285   -2.6074    0.0085 C.ar    1  UNL1       -0.0534
     19 C          -2.8721   -3.8830    0.0870 C.ar    1  UNL1       -0.0611
     20 C          -1.5031   -4.0163    0.1227 C.ar    1  UNL1       -0.0611
     21 C          -0.7076   -2.8724    0.0790 C.ar    1  UNL1       -0.0534
     22 C          -1.2368   -1.5514   -0.0016 C.ar    1  UNL1       -0.0096
     23 C           3.9536   -0.2808    0.9905 C.ar    1  UNL1       -0.0157
     24 C           5.3406   -0.4228    1.0381 C.ar    1  UNL1        0.1270
     25 F           5.8765   -1.1912    1.9970 F       1  UNL1       -0.2052
     26 C           6.1719    0.2149    0.1159 C.ar    1  UNL1       -0.0125
     27 C           7.6558    0.0219    0.1713 C.3     1  UNL1       -0.0369
     28 C           5.5806    0.9936   -0.8821 C.ar    1  UNL1       -0.0202
     29 H           1.8853    2.8097   -0.1704 H       1  UNL1        0.0624
     30 H          -0.4901    3.0343   -0.2368 H       1  UNL1        0.0624
     31 H           1.5143   -1.4272    0.0296 H       1  UNL1        0.0630
     32 H          -2.4867    3.2321   -0.2606 H       1  UNL1        0.0624
     33 H          -4.8699    3.4679   -0.3172 H       1  UNL1        0.0620
     34 H          -7.2167    0.6631   -0.7995 H       1  UNL1        0.0278
     35 H          -7.1325    1.4861    0.7790 H       1  UNL1        0.0278
     36 H          -7.0632    2.4181   -0.7353 H       1  UNL1        0.0278
     37 H          -5.3339   -0.7547   -0.1170 H       1  UNL1        0.0626
     38 H          -4.5133   -2.5737   -0.0169 H       1  UNL1        0.0624
     39 H          -3.5133   -4.7592    0.1190 H       1  UNL1        0.0618
     40 H          -1.0456   -4.9997    0.1834 H       1  UNL1        0.0618
     41 H           0.3628   -3.0505    0.1101 H       1  UNL1        0.0624
     42 H           3.3570   -0.7856    1.7460 H       1  UNL1        0.0653
     43 H           7.9249   -0.9451   -0.2648 H       1  UNL1        0.0278
     44 H           8.0123    0.0599    1.2059 H       1  UNL1        0.0278
     45 H           8.1781    0.8099   -0.3814 H       1  UNL1        0.0278
     46 H           6.1837    1.4966   -1.6329 H       1  UNL1        0.0650
@<TRIPOS>BOND
     1     1     2    1
     2     2     3   ar
     3     3     4    1
     4     4     5   ar
     5     5     6   ar
     6     4     7   ar
     7     7     8   ar
     8     8     9   ar
     9     9    10   ar
    10    10    11   ar
    11    11    12   ar
    12    12    13   ar
    13    13    14    1
    14    13    15   ar
    15    10    16   ar
    16    16    17   ar
    17    17    18   ar
    18    18    19   ar
    19    19    20   ar
    20    20    21   ar
    21    21    22   ar
    22     3    23   ar
    23    23    24   ar
    24    24    25    1
    25    24    26   ar
    26    26    27    1
    27    26    28   ar
    28    28     2   ar
    29     9     6   ar
    30    22     8   ar
    31    16    15   ar
    32    22    17   ar
    33     5    29    1
    34     6    30    1
    35     7    31    1
    36    11    32    1
    37    12    33    1
    38    14    34    1
    39    14    35    1
    40    14    36    1
    41    15    37    1
    42    18    38    1
    43    19    39    1
    44    20    40    1
    45    21    41    1
    46    23    42    1
    47    27    43    1
    48    27    44    1
    49    27    45    1
    50    28    46    1
