@<TRIPOS>MOLECULE
*****
 39 42 0 0 0
SMALL
GASTEIGER

@<TRIPOS>ATOM
      1 F          -2.7034   -0.5001    2.4009 F       1  UNL1       -0.2048
      2 C          -3.4547   -0.3553    1.2981 C.ar    1  UNL1        0.1315
      3 C          -2.8601    0.0098    0.0786 C.ar    1  UNL1        0.0201
      4 C          -1.4077    0.2337   -0.0460 C.ar    1  UNL1       -0.0148
      5 C          -0.4874   -0.7159    0.4335 C.ar    1  UNL1       -0.0499
      6 C           0.8711   -0.4735    0.2888 C.ar    1  UNL1       -0.0348
      7 C           2.0279   -1.3480    0.7284 C.3     1  UNL1       -0.0012
      8 C          -0.9080    1.4097   -0.6601 C.ar    1  UNL1       -0.0534
      9 C           0.4660    1.6479   -0.8031 C.ar    1  UNL1       -0.0532
     10 C           1.3510    0.6998   -0.3263 C.ar    1  UNL1       -0.0141
     11 C           2.7981    0.6661   -0.3288 C.ar    1  UNL1       -0.0141
     12 C           3.7245    1.5754   -0.8073 C.ar    1  UNL1       -0.0535
     13 C           5.0850    1.2759   -0.6696 C.ar    1  UNL1       -0.0582
     14 C           3.2243   -0.5305    0.2853 C.ar    1  UNL1       -0.0351
     15 C           4.5687   -0.8358    0.4266 C.ar    1  UNL1       -0.0548
     16 C           5.5143    0.0732   -0.0681 C.ar    1  UNL1       -0.0501
     17 C           6.9813   -0.2016    0.0945 C.3     1  UNL1       -0.0397
     18 C          -3.7083    0.1555   -1.0315 C.ar    1  UNL1       -0.0157
     19 C          -5.0820   -0.0570   -0.9127 C.ar    1  UNL1        0.1270
     20 F          -5.8542    0.1011   -1.9971 F       1  UNL1       -0.2052
     21 C          -5.6609   -0.4289    0.3017 C.ar    1  UNL1       -0.0125
     22 C          -7.1420   -0.6217    0.4091 C.3     1  UNL1       -0.0369
     23 C          -4.8307   -0.5673    1.4168 C.ar    1  UNL1       -0.0202
     24 H          -0.8266   -1.6313    0.9104 H       1  UNL1        0.0627
     25 H           2.0263   -1.4741    1.8150 H       1  UNL1        0.0362
     26 H           2.0038   -2.3109    0.2100 H       1  UNL1        0.0362
     27 H          -1.6009    2.1661   -1.0256 H       1  UNL1        0.0624
     28 H           0.8166    2.5596   -1.2746 H       1  UNL1        0.0624
     29 H           3.4140    2.5027   -1.2761 H       1  UNL1        0.0624
     30 H           5.8199    1.9898   -1.0366 H       1  UNL1        0.0620
     31 H           4.8772   -1.7581    0.9092 H       1  UNL1        0.0623
     32 H           7.3394    0.2260    1.0360 H       1  UNL1        0.0278
     33 H           7.1796   -1.2786    0.0966 H       1  UNL1        0.0278
     34 H           7.5531    0.2319   -0.7328 H       1  UNL1        0.0278
     35 H          -3.3104    0.4261   -2.0061 H       1  UNL1        0.0653
     36 H          -7.4011   -1.2086    1.2966 H       1  UNL1        0.0278
     37 H          -7.6428    0.3490    0.4760 H       1  UNL1        0.0278
     38 H          -7.5255   -1.1634   -0.4618 H       1  UNL1        0.0278
     39 H          -5.2356   -0.8385    2.3879 H       1  UNL1        0.0650
@<TRIPOS>BOND
     1     1     2    1
     2     2     3   ar
     3     3     4    1
     4     4     5   ar
     5     5     6   ar
     6     6     7    1
     7     4     8   ar
     8     8     9   ar
     9     9    10   ar
    10    10    11    1
    11    11    12   ar
    12    12    13   ar
    13    11    14   ar
    14    14    15   ar
    15    15    16   ar
    16    16    17    1
    17     3    18   ar
    18    18    19   ar
    19    19    20    1
    20    19    21   ar
    21    21    22    1
    22    21    23   ar
    23    23     2   ar
    24    10     6   ar
    25    14     7    1
    26    16    13   ar
    27     5    24    1
    28     7    25    1
    29     7    26    1
    30     8    27    1
    31     9    28    1
    32    12    29    1
    33    13    30    1
    34    15    31    1
    35    17    32    1
    36    17    33    1
    37    17    34    1
    38    18    35    1
    39    22    36    1
    40    22    37    1
    41    22    38    1
    42    23    39    1
