@<TRIPOS>MOLECULE
*****
 34 40 0 0 0
SMALL
GASTEIGER

@<TRIPOS>ATOM
      1 SI          5.8883   -1.0530    1.0732 Si      1  UNL1        0.0000
      2 C           4.1903   -1.8589    1.3822 C.2     1  UNL1        0.0000
      3 C           3.1843   -1.1009    0.8922 C.2     1  UNL1        0.0000
      4 C           3.5914    0.1226    0.2569 C.ar    1  UNL1        0.0000
      5 C           4.9933    0.3720    0.2283 C.ar    1  UNL1        0.0000
      6 C           5.3623    1.5324   -0.3756 C.ar    1  UNL1        0.0000
      7 S           3.9558    2.3555   -0.9317 S.2     1  UNL1        0.0000
      8 C           2.8685    1.1298   -0.3471 C.ar    1  UNL1        0.0000
      9 C           1.4369    1.2435   -0.5184 C.ar    1  UNL1        0.0000
     10 C           0.7192    2.2621   -1.1278 C.ar    1  UNL1        0.0000
     11 C          -0.6362    1.8702   -1.0175 C.ar    1  UNL1        0.0000
     12 S          -2.2484    2.4245   -1.4419 S.2     1  UNL1        0.0000
     13 C          -2.9094    1.0272   -0.7311 C.ar    1  UNL1        0.0000
     14 C          -4.3847    0.5968   -0.6084 C.ar    1  UNL1        0.0000
     15 O          -5.5186    1.2163   -1.0316 O.2     1  UNL1        0.0000
     16 C          -6.5589    0.4011   -0.6664 C.ar    1  UNL1        0.0000
     17 C          -6.1093   -0.7339   -0.0142 C.ar    1  UNL1        0.0000
     18 C          -4.7255   -0.5795    0.0064 C.ar    1  UNL1        0.0000
     19 C          -3.6862   -1.4025    0.5333 C.ar    1  UNL1        0.0000
     20 N          -3.9416   -2.5554    1.1418 N.ar    1  UNL1        0.0000
     21 S          -2.3975   -3.1121    1.5619 S.2     1  UNL1        0.0000
     22 N          -1.4279   -1.8650    0.9563 N.ar    1  UNL1        0.0000
     23 C          -2.3076   -1.0219    0.4305 C.ar    1  UNL1        0.0000
     24 C          -1.9614    0.1989   -0.2081 C.ar    1  UNL1        0.0000
     25 C          -0.6721    0.6753   -0.3695 C.ar    1  UNL1        0.0000
     26 O           0.5825    0.2683   -0.0524 O.2     1  UNL1        0.0000
     27 H           6.5469   -0.6776    2.3492 H       1  UNL1        0.0000
     28 H           6.7151   -1.8738    0.1537 H       1  UNL1        0.0000
     29 H           4.1062   -2.8053    1.8915 H       1  UNL1        0.0000
     30 H           2.1424   -1.3924    0.9713 H       1  UNL1        0.0000
     31 H           6.3473    1.9522   -0.5290 H       1  UNL1        0.0000
     32 H           1.1091    3.1589   -1.5864 H       1  UNL1        0.0000
     33 H          -7.5411    0.7640   -0.9384 H       1  UNL1        0.0000
     34 H          -6.7134   -1.5394    0.3787 H       1  UNL1        0.0000
@<TRIPOS>BOND
     1     1     2    1
     2     2     3    2
     3     3     4    1
     4     4     5   ar
     5     5     6   ar
     6     6     7   ar
     7     7     8   ar
     8     8     9    1
     9     9    10   ar
    10    10    11   ar
    11    11    12   ar
    12    12    13   ar
    13    13    14   ar
    14    14    15   ar
    15    15    16   ar
    16    16    17   ar
    17    17    18   ar
    18    18    19   ar
    19    19    20   ar
    20    20    21   ar
    21    21    22   ar
    22    22    23   ar
    23    23    24   ar
    24    24    25   ar
    25    25    26   ar
    26     5     1    1
    27    26     9   ar
    28     8     4   ar
    29    25    11   ar
    30    24    13   ar
    31    18    14   ar
    32    23    19   ar
    33     1    27    1
    34     1    28    1
    35     2    29    1
    36     3    30    1
    37     6    31    1
    38    10    32    1
    39    16    33    1
    40    17    34    1
