@<TRIPOS>MOLECULE
*****
 38 41 0 0 0
SMALL
GASTEIGER

@<TRIPOS>ATOM
      1 F           2.6615   -1.6472   -1.6935 F       1  UNL1       -0.2048
      2 C           3.4019   -0.7693   -0.9986 C.ar    1  UNL1        0.1315
      3 C           2.8036    0.0492   -0.0258 C.ar    1  UNL1        0.0201
      4 C           1.3579   -0.0096    0.2638 C.ar    1  UNL1       -0.0131
      5 C           0.4134    0.0612   -0.7782 C.ar    1  UNL1       -0.0300
      6 C          -0.9515    0.0125   -0.4594 C.ar    1  UNL1        0.0481
      7 N          -2.0552    0.0588   -1.2781 N.ar    1  UNL1       -0.3541
      8 C           0.8952   -0.1289    1.5847 C.ar    1  UNL1       -0.0532
      9 C          -0.4736   -0.1756    1.8891 C.ar    1  UNL1       -0.0514
     10 C          -1.4173   -0.1022    0.8474 C.ar    1  UNL1        0.0074
     11 C          -2.8475   -0.1202    0.7938 C.ar    1  UNL1        0.0074
     12 C          -3.8643   -0.2200    1.7643 C.ar    1  UNL1       -0.0518
     13 C          -5.2060   -0.2077    1.3619 C.ar    1  UNL1       -0.0581
     14 C          -3.2166   -0.0162   -0.5457 C.ar    1  UNL1        0.0477
     15 C          -4.5527   -0.0034   -0.9671 C.ar    1  UNL1       -0.0349
     16 C          -5.5545   -0.0878    0.0126 C.ar    1  UNL1       -0.0485
     17 C          -6.9998   -0.1107   -0.3952 C.3     1  UNL1       -0.0396
     18 C           3.6411    0.9369    0.6699 C.ar    1  UNL1       -0.0157
     19 C           5.0079    0.9919    0.3957 C.ar    1  UNL1        0.1270
     20 F           5.7700    1.8489    1.0899 F       1  UNL1       -0.2052
     21 C           5.5901    0.1805   -0.5793 C.ar    1  UNL1       -0.0125
     22 C           7.0647    0.2378   -0.8331 C.3     1  UNL1       -0.0369
     23 C           4.7711   -0.7144   -1.2724 C.ar    1  UNL1       -0.0202
     24 H           0.7321    0.1543   -1.8129 H       1  UNL1        0.0644
     25 H          -2.0181    0.1366   -2.2835 H       1  UNL1        0.1659
     26 H           1.6044   -0.2009    2.4077 H       1  UNL1        0.0624
     27 H          -0.7995   -0.2716    2.9205 H       1  UNL1        0.0624
     28 H          -3.6124   -0.3091    2.8167 H       1  UNL1        0.0624
     29 H          -5.9810   -0.2928    2.1208 H       1  UNL1        0.0620
     30 H          -4.8051    0.0710   -2.0205 H       1  UNL1        0.0641
     31 H          -7.6314    0.3361    0.3798 H       1  UNL1        0.0278
     32 H          -7.1562    0.4660   -1.3129 H       1  UNL1        0.0278
     33 H          -7.3236   -1.1420   -0.5657 H       1  UNL1        0.0278
     34 H           3.2394    1.6048    1.4276 H       1  UNL1        0.0653
     35 H           7.6005   -0.3193   -0.0584 H       1  UNL1        0.0278
     36 H           7.3154   -0.1935   -1.8079 H       1  UNL1        0.0278
     37 H           7.4164    1.2748   -0.8366 H       1  UNL1        0.0278
     38 H           5.1796   -1.3789   -2.0286 H       1  UNL1        0.0650
@<TRIPOS>BOND
     1     1     2    1
     2     2     3   ar
     3     3     4    1
     4     4     5   ar
     5     5     6   ar
     6     6     7   ar
     7     4     8   ar
     8     8     9   ar
     9     9    10   ar
    10    10    11   ar
    11    11    12   ar
    12    12    13   ar
    13    11    14   ar
    14    14    15   ar
    15    15    16   ar
    16    16    17    1
    17     3    18   ar
    18    18    19   ar
    19    19    20    1
    20    19    21   ar
    21    21    22    1
    22    21    23   ar
    23    23     2   ar
    24    10     6   ar
    25    14     7   ar
    26    16    13   ar
    27     5    24    1
    28     7    25    1
    29     8    26    1
    30     9    27    1
    31    12    28    1
    32    13    29    1
    33    15    30    1
    34    17    31    1
    35    17    32    1
    36    17    33    1
    37    18    34    1
    38    22    35    1
    39    22    36    1
    40    22    37    1
    41    23    38    1
