@<TRIPOS>MOLECULE
*****
 27 29 0 0 0
SMALL
GASTEIGER

@<TRIPOS>ATOM
      1 F          -6.2042    0.5517   -0.0606 F       1  UNL1       -0.2055
      2 C          -4.9057    0.2403   -0.1669 C.ar    1  UNL1        0.1234
      3 C          -4.2984   -0.5112    0.8317 C.ar    1  UNL1       -0.0262
      4 C          -2.9452   -0.8354    0.7230 C.ar    1  UNL1       -0.0551
      5 C          -2.2000   -0.4110   -0.3897 C.ar    1  UNL1       -0.0370
      6 C          -0.7315   -0.7479   -0.5013 C.3     1  UNL1        0.0249
      7 S           0.2943    0.5395    0.2803 S.3     1  UNL1       -0.0990
      8 C           1.9016   -0.1250   -0.0088 C.ar    1  UNL1        0.1259
      9 N           2.0798   -1.2928   -0.6584 N.ar    1  UNL1       -0.2270
     10 C           3.3436   -1.7315   -0.8384 C.ar    1  UNL1        0.1197
     11 N           4.4837   -1.1489   -0.4486 N.ar    1  UNL1       -0.2145
     12 C           4.2801    0.0127    0.1962 C.ar    1  UNL1        0.1817
     13 N           5.2574    0.8240    0.7064 N.ar    1  UNL1       -0.2165
     14 C           4.6140    1.8372    1.2438 C.ar    1  UNL1        0.0963
     15 N           3.2597    1.7104    1.0998 N.ar    1  UNL1       -0.3410
     16 C           3.0254    0.5423    0.4280 C.ar    1  UNL1        0.1173
     17 C          -2.8325    0.3539   -1.3840 C.ar    1  UNL1       -0.0551
     18 C          -4.1858    0.6764   -1.2724 C.ar    1  UNL1       -0.0262
     19 H          -4.8803   -0.8368    1.6878 H       1  UNL1        0.0646
     20 H          -2.4732   -1.4182    1.5115 H       1  UNL1        0.0621
     21 H          -0.4606   -0.8487   -1.5587 H       1  UNL1        0.0429
     22 H          -0.5428   -1.7158   -0.0226 H       1  UNL1        0.0429
     23 H           3.4486   -2.6753   -1.3656 H       1  UNL1        0.1048
     24 H           5.0689    2.6819    1.7450 H       1  UNL1        0.1027
     25 H           2.5561    2.3583    1.4279 H       1  UNL1        0.1669
     26 H          -2.2720    0.7041   -2.2484 H       1  UNL1        0.0621
     27 H          -4.6810    1.2658   -2.0373 H       1  UNL1        0.0646
@<TRIPOS>BOND
     1     1     2    1
     2     2     3   ar
     3     3     4   ar
     4     4     5   ar
     5     5     6    1
     6     6     7    1
     7     7     8    1
     8     8     9   ar
     9     9    10   ar
    10    10    11   ar
    11    11    12   ar
    12    12    13   ar
    13    13    14   ar
    14    14    15   ar
    15    15    16   ar
    16     5    17   ar
    17    17    18   ar
    18    18     2   ar
    19    16     8   ar
    20    16    12   ar
    21     3    19    1
    22     4    20    1
    23     6    21    1
    24     6    22    1
    25    10    23    1
    26    14    24    1
    27    15    25    1
    28    17    26    1
    29    18    27    1
