@<TRIPOS>MOLECULE
*****
 31 32 0 0 0
SMALL
GASTEIGER

@<TRIPOS>ATOM
      1 F          -3.9385   -1.5750   -1.8880 F       1  UNL1       -0.2017
      2 C          -4.1404   -0.7524   -0.8467 C.ar    1  UNL1        0.1648
      3 C          -5.4509   -0.4566   -0.4792 C.ar    1  UNL1       -0.0228
      4 C          -5.6882    0.3946    0.5967 C.ar    1  UNL1       -0.0588
      5 C          -4.6118    0.9418    1.2952 C.ar    1  UNL1       -0.0581
      6 C          -3.2961    0.6410    0.9212 C.ar    1  UNL1       -0.0171
      7 C          -3.0493   -0.2119   -0.1574 C.ar    1  UNL1        0.1555
      8 O          -1.8143   -0.5810   -0.6168 O.3     1  UNL1       -0.4891
      9 C          -0.6762   -0.0347    0.0463 C.3     1  UNL1        0.0898
     10 C           0.5682   -0.5867   -0.6455 C.3     1  UNL1       -0.0170
     11 C           1.8506   -0.0359   -0.0288 C.3     1  UNL1       -0.0302
     12 C           3.0865   -0.6184   -0.7112 C.3     1  UNL1        0.0433
     13 N           4.3133   -0.0812   -0.1648 N.ar    1  UNL1       -0.2520
     14 C           5.1313    0.8557   -0.7130 C.ar    1  UNL1        0.1142
     15 N           6.1442    1.0773    0.0928 N.ar    1  UNL1       -0.2228
     16 C           5.8951    0.2314    1.1366 C.ar    1  UNL1        0.1379
     17 N           4.7822   -0.4990    1.0248 N.ar    1  UNL1       -0.1584
     18 H          -6.2737   -0.8934   -1.0359 H       1  UNL1        0.0647
     19 H          -6.7076    0.6307    0.8910 H       1  UNL1        0.0618
     20 H          -4.7957    1.6063    2.1367 H       1  UNL1        0.0619
     21 H          -2.4907    1.0883    1.4942 H       1  UNL1        0.0655
     22 H          -0.6716   -0.3365    1.1005 H       1  UNL1        0.0696
     23 H          -0.6839    1.0591   -0.0322 H       1  UNL1        0.0696
     24 H           0.5276   -0.3434   -1.7147 H       1  UNL1        0.0298
     25 H           0.5582   -1.6824   -0.5866 H       1  UNL1        0.0298
     26 H           1.8737   -0.2677    1.0434 H       1  UNL1        0.0284
     27 H           1.8613    1.0581   -0.1136 H       1  UNL1        0.0284
     28 H           3.1270   -1.7074   -0.5935 H       1  UNL1        0.0509
     29 H           3.0772   -0.3977   -1.7847 H       1  UNL1        0.0509
     30 H           4.9507    1.3300   -1.6672 H       1  UNL1        0.1044
     31 H           6.5420    0.1468    2.0003 H       1  UNL1        0.1065
@<TRIPOS>BOND
     1     1     2    1
     2     2     3   ar
     3     3     4   ar
     4     4     5   ar
     5     5     6   ar
     6     6     7   ar
     7     7     8    1
     8     8     9    1
     9     9    10    1
    10    10    11    1
    11    11    12    1
    12    12    13    1
    13    13    14   ar
    14    14    15   ar
    15    15    16   ar
    16    16    17   ar
    17     7     2   ar
    18    17    13   ar
    19     3    18    1
    20     4    19    1
    21     5    20    1
    22     6    21    1
    23     9    22    1
    24     9    23    1
    25    10    24    1
    26    10    25    1
    27    11    26    1
    28    11    27    1
    29    12    28    1
    30    12    29    1
    31    14    30    1
    32    16    31    1
