@<TRIPOS>MOLECULE
*****
 46 48 0 0 0
SMALL
GASTEIGER

@<TRIPOS>ATOM
      1 N           8.6190    2.5126    1.9644 N.1     1  UNL1       -0.1906
      2 C           7.7223    2.1802    1.3057 C.1     1  UNL1        0.1063
      3 C           6.5856    1.7617    0.5520 C.2     1  UNL1        0.1353
      4 C           5.4234    1.5589    1.2080 C.2     1  UNL1       -0.0374
      5 C           4.1363    1.1589    0.6722 C.2     1  UNL1       -0.0598
      6 C           3.0593    0.9683    1.4522 C.2     1  UNL1       -0.0546
      7 C           1.7360    0.5723    0.9467 C.ar    1  UNL1       -0.0249
      8 C           1.5749   -0.3241   -0.1155 C.ar    1  UNL1       -0.0528
      9 C           0.2962   -0.6988   -0.5460 C.ar    1  UNL1       -0.0395
     10 C          -0.8561   -0.1955    0.0792 C.ar    1  UNL1        0.0388
     11 N          -2.1740   -0.5806   -0.3654 N.pl3   1  UNL1       -0.2692
     12 C          -3.2305    0.4020   -0.4285 C.ar    1  UNL1        0.0388
     13 C          -4.5396    0.0844   -0.0248 C.ar    1  UNL1       -0.0400
     14 C          -5.5616    1.0355   -0.0847 C.ar    1  UNL1       -0.0600
     15 C          -5.2926    2.3203   -0.5503 C.ar    1  UNL1       -0.0616
     16 C          -4.0031    2.6557   -0.9560 C.ar    1  UNL1       -0.0600
     17 C          -2.9807    1.7049   -0.8952 C.ar    1  UNL1       -0.0400
     18 C          -2.4369   -1.9480   -0.7483 C.ar    1  UNL1        0.0388
     19 C          -1.8986   -3.0214   -0.0163 C.ar    1  UNL1       -0.0400
     20 C          -2.1532   -4.3445   -0.3870 C.ar    1  UNL1       -0.0600
     21 C          -2.9498   -4.6171   -1.4964 C.ar    1  UNL1       -0.0616
     22 C          -3.4927   -3.5689   -2.2355 C.ar    1  UNL1       -0.0600
     23 C          -3.2389   -2.2458   -1.8644 C.ar    1  UNL1       -0.0400
     24 C          -0.6850    0.6918    1.1542 C.ar    1  UNL1       -0.0395
     25 C           0.5932    1.0654    1.5859 C.ar    1  UNL1       -0.0528
     26 C           6.7520    1.5678   -0.9076 C.2     1  UNL1        0.3472
     27 O           5.9951    0.9981   -1.6729 O.2     1  UNL1       -0.2443
     28 O           7.8924    2.1099   -1.3731 O.3     1  UNL1       -0.4766
     29 H           5.4238    1.7217    2.2886 H       1  UNL1        0.0633
     30 H           4.0420    1.0271   -0.4026 H       1  UNL1        0.0618
     31 H           3.1175    1.1206    2.5279 H       1  UNL1        0.0623
     32 H           2.4378   -0.7505   -0.6217 H       1  UNL1        0.0624
     33 H           0.2076   -1.3808   -1.3887 H       1  UNL1        0.0636
     34 H          -4.7677   -0.9076    0.3580 H       1  UNL1        0.0636
     35 H          -6.5659    0.7712    0.2360 H       1  UNL1        0.0618
     36 H          -6.0878    3.0597   -0.5976 H       1  UNL1        0.0618
     37 H          -3.7906    3.6558   -1.3244 H       1  UNL1        0.0618
     38 H          -1.9855    1.9826   -1.2343 H       1  UNL1        0.0636
     39 H          -1.2888   -2.8315    0.8638 H       1  UNL1        0.0636
     40 H          -1.7313   -5.1600    0.1945 H       1  UNL1        0.0618
     41 H          -3.1474   -5.6462   -1.7850 H       1  UNL1        0.0618
     42 H          -4.1115   -3.7778   -3.1042 H       1  UNL1        0.0618
     43 H          -3.6583   -1.4426   -2.4658 H       1  UNL1        0.0636
     44 H          -1.5516    1.0868    1.6796 H       1  UNL1        0.0636
     45 H           0.6810    1.7517    2.4251 H       1  UNL1        0.0624
     46 H           7.8840    1.9154   -2.3347 H       1  UNL1        0.2954
@<TRIPOS>BOND
     1     1     2    3
     2     2     3    1
     3     3     4    2
     4     4     5    1
     5     5     6    2
     6     6     7    1
     7     7     8   ar
     8     8     9   ar
     9     9    10   ar
    10    10    11    1
    11    11    12    1
    12    12    13   ar
    13    13    14   ar
    14    14    15   ar
    15    15    16   ar
    16    16    17   ar
    17    11    18    1
    18    18    19   ar
    19    19    20   ar
    20    20    21   ar
    21    21    22   ar
    22    22    23   ar
    23    10    24   ar
    24    24    25   ar
    25     3    26    1
    26    26    27    2
    27    26    28    1
    28    25     7   ar
    29    17    12   ar
    30    23    18   ar
    31     4    29    1
    32     5    30    1
    33     6    31    1
    34     8    32    1
    35     9    33    1
    36    13    34    1
    37    14    35    1
    38    15    36    1
    39    16    37    1
    40    17    38    1
    41    19    39    1
    42    20    40    1
    43    21    41    1
    44    22    42    1
    45    23    43    1
    46    24    44    1
    47    25    45    1
    48    28    46    1
