@<TRIPOS>MOLECULE
*****
 35 36 0 0 0
SMALL
GASTEIGER

@<TRIPOS>ATOM
      1 N          -0.5481    2.3897    0.6084 N.1     1  UNL1       -0.1907
      2 C          -0.4703    1.3179    0.1695 C.1     1  UNL1        0.1044
      3 C          -0.3943    0.0142   -0.3892 C.2     1  UNL1        0.1133
      4 C           0.5010   -0.9057    0.0253 C.2     1  UNL1       -0.0393
      5 C           1.5026   -0.7283    1.0626 C.2     1  UNL1       -0.0598
      6 C           2.3523   -1.7064    1.4158 C.2     1  UNL1       -0.0546
      7 C           3.3849   -1.5621    2.4527 C.ar    1  UNL1       -0.0250
      8 C           4.6204   -2.1971    2.2694 C.ar    1  UNL1       -0.0546
      9 C           5.6188   -2.1073    3.2427 C.ar    1  UNL1       -0.0612
     10 C           5.3877   -1.3910    4.4149 C.ar    1  UNL1       -0.0617
     11 C           4.1576   -0.7689    4.6166 C.ar    1  UNL1       -0.0612
     12 C           3.1590   -0.8582    3.6431 C.ar    1  UNL1       -0.0546
     13 C          -1.3393   -0.3918   -1.4820 C.2     1  UNL1        0.2547
     14 O          -1.3231   -1.5230   -1.9624 O.2     1  UNL1       -0.2694
     15 N          -2.2163    0.5691   -1.9209 N.am    1  UNL1       -0.3037
     16 C          -3.0863    0.3133   -3.0478 C.3     1  UNL1        0.0701
     17 C          -4.0984    1.3931   -3.1227 C.ar    1  UNL1        0.1218
     18 C          -5.4776    1.4053   -3.0979 C.ar    1  UNL1       -0.0192
     19 C          -5.8672    2.7628   -3.1994 C.ar    1  UNL1       -0.0236
     20 C          -4.7040    3.4914   -3.2783 C.ar    1  UNL1        0.0921
     21 O          -3.6241    2.6698   -3.2320 O.2     1  UNL1       -0.4662
     22 H           0.4961   -1.8893   -0.4478 H       1  UNL1        0.0632
     23 H           1.5667    0.2407    1.5544 H       1  UNL1        0.0618
     24 H           2.3249   -2.6736    0.9182 H       1  UNL1        0.0623
     25 H           4.8212   -2.7611    1.3612 H       1  UNL1        0.0623
     26 H           6.5759   -2.5976    3.0850 H       1  UNL1        0.0618
     27 H           6.1636   -1.3215    5.1727 H       1  UNL1        0.0618
     28 H           3.9715   -0.2172    5.5345 H       1  UNL1        0.0618
     29 H           2.2012   -0.3801    3.8332 H       1  UNL1        0.0623
     30 H          -2.1458    1.5373   -1.6271 H       1  UNL1        0.1495
     31 H          -2.4737    0.2931   -3.9552 H       1  UNL1        0.0543
     32 H          -3.5585   -0.6674   -2.9277 H       1  UNL1        0.0543
     33 H          -6.1215    0.5406   -3.0139 H       1  UNL1        0.0652
     34 H          -6.8714    3.1626   -3.2118 H       1  UNL1        0.0649
     35 H          -4.4852    4.5468   -3.3656 H       1  UNL1        0.1029
@<TRIPOS>BOND
     1     1     2    3
     2     2     3    1
     3     3     4    2
     4     4     5    1
     5     5     6    2
     6     6     7    1
     7     7     8   ar
     8     8     9   ar
     9     9    10   ar
    10    10    11   ar
    11    11    12   ar
    12     3    13    1
    13    13    14    2
    14    13    15   am
    15    15    16    1
    16    16    17    1
    17    17    18   ar
    18    18    19   ar
    19    19    20   ar
    20    20    21   ar
    21    12     7   ar
    22    21    17   ar
    23     4    22    1
    24     5    23    1
    25     6    24    1
    26     8    25    1
    27     9    26    1
    28    10    27    1
    29    11    28    1
    30    12    29    1
    31    15    30    1
    32    16    31    1
    33    16    32    1
    34    18    33    1
    35    19    34    1
    36    20    35    1
