@<TRIPOS>MOLECULE
*****
 32 33 0 0 0
SMALL
GASTEIGER

@<TRIPOS>ATOM
      1 N          -2.5553   -3.9531    0.8527 N.1     1  UNL1       -0.1907
      2 C          -1.7514   -3.1165    0.8185 C.1     1  UNL1        0.1044
      3 C          -0.7610   -2.1040    0.7161 C.2     1  UNL1        0.1140
      4 C           0.3647   -2.2976    0.0020 C.2     1  UNL1       -0.0321
      5 C           1.4621   -1.3371   -0.1716 C.ar    1  UNL1       -0.0236
      6 C           1.8659   -0.9954   -1.4682 C.ar    1  UNL1       -0.0533
      7 C           2.9160   -0.0937   -1.6693 C.ar    1  UNL1       -0.0438
      8 C           3.5798    0.4670   -0.5740 C.ar    1  UNL1        0.0518
      9 C           4.6538    1.3940   -0.7802 C.1     1  UNL1        0.0992
     10 N           5.5211    2.1454   -0.9537 N.1     1  UNL1       -0.1909
     11 C           3.1925    0.1157    0.7218 C.ar    1  UNL1       -0.0438
     12 C           2.1431   -0.7871    0.9211 C.ar    1  UNL1       -0.0533
     13 C          -1.0193   -0.8367    1.4425 C.2     1  UNL1        0.2569
     14 O          -0.7126   -0.7429    2.6290 O.2     1  UNL1       -0.2692
     15 N          -1.6013    0.1839    0.7271 N.am    1  UNL1       -0.2970
     16 C          -2.0536    0.1612   -0.6575 C.3     1  UNL1        0.0150
     17 C          -2.3784    1.6149   -0.9705 C.3     1  UNL1       -0.0357
     18 C          -2.8297    2.1601    0.3782 C.3     1  UNL1       -0.0357
     19 C          -1.8996    1.4587    1.3572 C.3     1  UNL1        0.0150
     20 H           0.5077   -3.2400   -0.5261 H       1  UNL1        0.0638
     21 H           1.3646   -1.4218   -2.3351 H       1  UNL1        0.0624
     22 H           3.2114    0.1650   -2.6848 H       1  UNL1        0.0631
     23 H           3.7023    0.5374    1.5866 H       1  UNL1        0.0631
     24 H           1.8684   -1.0528    1.9415 H       1  UNL1        0.0624
     25 H          -2.9492   -0.4676   -0.7081 H       1  UNL1        0.0465
     26 H          -1.2908   -0.2476   -1.3241 H       1  UNL1        0.0465
     27 H          -3.1370    1.7190   -1.7509 H       1  UNL1        0.0281
     28 H          -1.4727    2.1399   -1.2974 H       1  UNL1        0.0281
     29 H          -2.7668    3.2496    0.4434 H       1  UNL1        0.0281
     30 H          -3.8681    1.8629    0.5683 H       1  UNL1        0.0281
     31 H          -2.3512    1.3166    2.3437 H       1  UNL1        0.0465
     32 H          -0.9555    2.0027    1.4725 H       1  UNL1        0.0465
@<TRIPOS>BOND
     1     1     2    3
     2     2     3    1
     3     3     4    2
     4     4     5    1
     5     5     6   ar
     6     6     7   ar
     7     7     8   ar
     8     8     9    1
     9     9    10    3
    10     8    11   ar
    11    11    12   ar
    12     3    13    1
    13    13    14    2
    14    13    15   am
    15    15    16    1
    16    16    17    1
    17    17    18    1
    18    18    19    1
    19    12     5   ar
    20    19    15    1
    21     4    20    1
    22     6    21    1
    23     7    22    1
    24    11    23    1
    25    12    24    1
    26    16    25    1
    27    16    26    1
    28    17    27    1
    29    17    28    1
    30    18    29    1
    31    18    30    1
    32    19    31    1
    33    19    32    1
