@<TRIPOS>MOLECULE
*****
 42 44 0 0 0
SMALL
GASTEIGER

@<TRIPOS>ATOM
      1 N           6.9961   -2.1326    2.8031 N.1     1  UNL1       -0.1906
      2 C           6.0900   -1.6273    2.2823 C.1     1  UNL1        0.1063
      3 C           4.9552   -1.0576    1.6431 C.2     1  UNL1        0.1359
      4 C           3.7762   -1.7104    1.6573 C.2     1  UNL1       -0.0302
      5 C           2.4995   -1.2194    1.1287 C.ar    1  UNL1       -0.0235
      6 C           1.8644   -1.9217    0.1017 C.ar    1  UNL1       -0.0528
      7 C           0.6386   -1.4768   -0.4048 C.ar    1  UNL1       -0.0395
      8 C           0.0160   -0.3262    0.1087 C.ar    1  UNL1        0.0388
      9 N          -1.2477    0.1329   -0.4165 N.pl3   1  UNL1       -0.2692
     10 C          -2.2597    0.6425    0.4788 C.ar    1  UNL1        0.0388
     11 C          -2.5115    0.0218    1.7154 C.ar    1  UNL1       -0.0400
     12 C          -3.4904    0.5156    2.5818 C.ar    1  UNL1       -0.0600
     13 C          -4.2337    1.6388    2.2270 C.ar    1  UNL1       -0.0616
     14 C          -4.0005    2.2685    1.0068 C.ar    1  UNL1       -0.0600
     15 C          -3.0224    1.7742    0.1398 C.ar    1  UNL1       -0.0400
     16 C          -1.5010    0.0844   -1.8376 C.ar    1  UNL1        0.0388
     17 C          -2.7579   -0.3021   -2.3359 C.ar    1  UNL1       -0.0400
     18 C          -3.0030   -0.3503   -3.7109 C.ar    1  UNL1       -0.0600
     19 C          -1.9960   -0.0116   -4.6113 C.ar    1  UNL1       -0.0616
     20 C          -0.7440    0.3749   -4.1392 C.ar    1  UNL1       -0.0600
     21 C          -0.4984    0.4222   -2.7643 C.ar    1  UNL1       -0.0400
     22 C           0.6604    0.3623    1.1508 C.ar    1  UNL1       -0.0395
     23 C           1.8866   -0.0799    1.6588 C.ar    1  UNL1       -0.0528
     24 C           5.1483    0.2676    1.0295 C.2     1  UNL1        0.3472
     25 O           5.7414    1.2039    1.5348 O.2     1  UNL1       -0.2443
     26 O           4.6457    0.3505   -0.2149 O.3     1  UNL1       -0.4766
     27 H           3.7110   -2.6966    2.1165 H       1  UNL1        0.0638
     28 H           2.3151   -2.8168   -0.3210 H       1  UNL1        0.0624
     29 H           0.1608   -2.0485   -1.1974 H       1  UNL1        0.0636
     30 H          -1.9561   -0.8673    2.0041 H       1  UNL1        0.0636
     31 H          -3.6735    0.0191    3.5311 H       1  UNL1        0.0618
     32 H          -4.9950    2.0229    2.9010 H       1  UNL1        0.0618
     33 H          -4.5766    3.1470    0.7282 H       1  UNL1        0.0618
     34 H          -2.8453    2.2911   -0.8005 H       1  UNL1        0.0636
     35 H          -3.5534   -0.5872   -1.6513 H       1  UNL1        0.0636
     36 H          -3.9802   -0.6557   -4.0757 H       1  UNL1        0.0618
     37 H          -2.1871   -0.0486   -5.6806 H       1  UNL1        0.0618
     38 H           0.0425    0.6440   -4.8393 H       1  UNL1        0.0618
     39 H           0.4805    0.7442   -2.4176 H       1  UNL1        0.0636
     40 H           0.2154    1.2637    1.5669 H       1  UNL1        0.0636
     41 H           2.3484    0.4775    2.4707 H       1  UNL1        0.0624
     42 H           4.8412    1.2672   -0.5008 H       1  UNL1        0.2954
@<TRIPOS>BOND
     1     1     2    3
     2     2     3    1
     3     3     4    2
     4     4     5    1
     5     5     6   ar
     6     6     7   ar
     7     7     8   ar
     8     8     9    1
     9     9    10    1
    10    10    11   ar
    11    11    12   ar
    12    12    13   ar
    13    13    14   ar
    14    14    15   ar
    15     9    16    1
    16    16    17   ar
    17    17    18   ar
    18    18    19   ar
    19    19    20   ar
    20    20    21   ar
    21     8    22   ar
    22    22    23   ar
    23     3    24    1
    24    24    25    2
    25    24    26    1
    26    23     5   ar
    27    15    10   ar
    28    21    16   ar
    29     4    27    1
    30     6    28    1
    31     7    29    1
    32    11    30    1
    33    12    31    1
    34    13    32    1
    35    14    33    1
    36    15    34    1
    37    17    35    1
    38    18    36    1
    39    19    37    1
    40    20    38    1
    41    21    39    1
    42    22    40    1
    43    23    41    1
    44    26    42    1
