@<TRIPOS>MOLECULE
*****
 28 29 0 0 0
SMALL
GASTEIGER

@<TRIPOS>ATOM
      1 N           0.6260   -3.0195    0.4584 N.1     1  UNL1       -0.1907
      2 C           0.1598   -1.9565    0.4605 C.1     1  UNL1        0.1045
      3 C          -0.4166   -0.6565    0.4429 C.2     1  UNL1        0.1155
      4 C           0.3642    0.4943    0.9852 C.2     1  UNL1        0.2048
      5 O          -0.1593    1.3596    1.6860 O.2     1  UNL1       -0.2859
      6 C           1.8199    0.5729    0.6960 C.ar    1  UNL1        0.0230
      7 C           2.3545    0.1732   -0.5356 C.ar    1  UNL1       -0.0509
      8 C           3.7286    0.2762   -0.7634 C.ar    1  UNL1       -0.0611
      9 C           4.5667    0.7886    0.2270 C.ar    1  UNL1       -0.0617
     10 C           4.0346    1.2086    1.4454 C.ar    1  UNL1       -0.0611
     11 C           2.6626    1.1073    1.6789 C.ar    1  UNL1       -0.0509
     12 C          -1.6697   -0.4367   -0.0033 C.2     1  UNL1        0.0253
     13 C          -2.6039   -1.5209   -0.5147 C.3     1  UNL1       -0.0121
     14 C          -3.7818   -0.7221   -1.0857 C.3     1  UNL1       -0.0323
     15 C          -3.7721    0.5855   -0.2976 C.3     1  UNL1        0.0092
     16 N          -2.3549    0.7681   -0.0526 N.pl3   1  UNL1       -0.3460
     17 H           1.7215   -0.2019   -1.3354 H       1  UNL1        0.0625
     18 H           4.1468   -0.0374   -1.7173 H       1  UNL1        0.0618
     19 H           5.6360    0.8687    0.0455 H       1  UNL1        0.0618
     20 H           4.6874    1.6182    2.2125 H       1  UNL1        0.0618
     21 H           2.2532    1.4451    2.6291 H       1  UNL1        0.0625
     22 H          -2.1491   -2.1500   -1.2857 H       1  UNL1        0.0326
     23 H          -2.9430   -2.1469    0.3184 H       1  UNL1        0.0326
     24 H          -3.6043   -0.5168   -2.1492 H       1  UNL1        0.0284
     25 H          -4.7330   -1.2557   -1.0016 H       1  UNL1        0.0284
     26 H          -4.3107    0.4805    0.6504 H       1  UNL1        0.0461
     27 H          -4.1971    1.4161   -0.8674 H       1  UNL1        0.0461
     28 H          -2.0662    1.4579    0.6493 H       1  UNL1        0.1458
@<TRIPOS>BOND
     1     1     2    3
     2     2     3    1
     3     3     4    1
     4     4     5    2
     5     4     6    1
     6     6     7   ar
     7     7     8   ar
     8     8     9   ar
     9     9    10   ar
    10    10    11   ar
    11     3    12    2
    12    12    13    1
    13    13    14    1
    14    14    15    1
    15    15    16    1
    16    11     6   ar
    17    16    12    1
    18     7    17    1
    19     8    18    1
    20     9    19    1
    21    10    20    1
    22    11    21    1
    23    13    22    1
    24    13    23    1
    25    14    24    1
    26    14    25    1
    27    15    26    1
    28    15    27    1
    29    16    28    1
