@<TRIPOS>MOLECULE
*****
 24 26 0 0 0
SMALL
GASTEIGER

@<TRIPOS>ATOM
      1 N           5.7721    0.3347   -1.1082 N.1     1  UNL1       -0.1909
      2 C           4.6478    0.2485   -0.8334 C.1     1  UNL1        0.0992
      3 C           3.2612    0.1390   -0.4858 C.ar    1  UNL1        0.0518
      4 C           2.3964   -0.6236   -1.2753 C.ar    1  UNL1       -0.0437
      5 C           1.0437   -0.7297   -0.9350 C.ar    1  UNL1       -0.0513
      6 C           2.7662    0.7961    0.6444 C.ar    1  UNL1       -0.0437
      7 C           1.4131    0.6895    0.9837 C.ar    1  UNL1       -0.0513
      8 C           0.5383   -0.0767    0.1983 C.ar    1  UNL1        0.0006
      9 C          -0.8887   -0.1947    0.5545 C.ar    1  UNL1        0.0777
     10 C          -1.2297   -0.6844    1.7617 C.ar    1  UNL1       -0.0173
     11 C          -2.6879   -0.7833    2.0368 C.ar    1  UNL1        0.0335
     12 N          -3.6484   -0.4502    1.2337 N.ar    1  UNL1       -0.2190
     13 C          -3.2655    0.0379    0.0171 C.ar    1  UNL1        0.2533
     14 N          -4.0148    0.4474   -0.9829 N.ar    1  UNL1       -0.1974
     15 C          -3.1112    0.8211   -1.9257 C.ar    1  UNL1        0.1406
     16 N          -1.8292    0.6736   -1.5975 N.ar    1  UNL1       -0.1518
     17 N          -1.9120    0.1696   -0.3374 N.ar    1  UNL1       -0.1963
     18 H           2.7640   -1.1356   -2.1630 H       1  UNL1        0.0631
     19 H           0.3876   -1.3219   -1.5716 H       1  UNL1        0.0624
     20 H           3.4267    1.4000    1.2645 H       1  UNL1        0.0631
     21 H           1.0495    1.2239    1.8594 H       1  UNL1        0.0624
     22 H          -0.5342   -1.0130    2.5223 H       1  UNL1        0.0654
     23 H          -2.9462   -1.1841    3.0317 H       1  UNL1        0.0831
     24 H          -3.3987    1.2160   -2.8922 H       1  UNL1        0.1066
@<TRIPOS>BOND
     1     1     2    3
     2     2     3    1
     3     3     4   ar
     4     4     5   ar
     5     3     6   ar
     6     6     7   ar
     7     7     8   ar
     8     8     9    1
     9     9    10   ar
    10    10    11   ar
    11    11    12   ar
    12    12    13   ar
    13    13    14   ar
    14    14    15   ar
    15    15    16   ar
    16    16    17   ar
    17     8     5   ar
    18    17     9   ar
    19    17    13   ar
    20     4    18    1
    21     5    19    1
    22     6    20    1
    23     7    21    1
    24    10    22    1
    25    11    23    1
    26    15    24    1
