@<TRIPOS>MOLECULE
*****
 24 26 0 0 0
SMALL
GASTEIGER

@<TRIPOS>ATOM
      1 N          -4.6500   -4.2772   -1.0057 N.1     1  UNL1       -0.1909
      2 C          -3.7992   -3.5049   -0.8408 C.1     1  UNL1        0.0992
      3 C          -2.7507   -2.5501   -0.6338 C.ar    1  UNL1        0.0518
      4 C          -2.7827   -1.6972    0.4693 C.ar    1  UNL1       -0.0438
      5 C          -1.7565   -0.7633    0.6711 C.ar    1  UNL1       -0.0543
      6 C          -1.6889   -2.4640   -1.5322 C.ar    1  UNL1       -0.0438
      7 C          -0.6667   -1.5286   -1.3245 C.ar    1  UNL1       -0.0543
      8 C          -0.6734   -0.6552   -0.2196 C.ar    1  UNL1       -0.0339
      9 C           0.4225    0.3346   -0.0134 C.ar    1  UNL1       -0.0545
     10 C           0.4598    1.2006    1.0408 C.ar    1  UNL1        0.0585
     11 N           1.5967    1.9174    0.8649 N.ar    1  UNL1       -0.1378
     12 C           2.3769    2.9225    1.3898 C.ar    1  UNL1        0.0741
     13 C           3.5370    3.1007    0.5143 C.ar    1  UNL1        0.0257
     14 C           3.3903    2.1296   -0.5684 C.ar    1  UNL1        0.1932
     15 N           2.2311    1.4368   -0.3413 N.ar    1  UNL1       -0.1438
     16 N           1.4556    0.3746   -0.9424 N.ar    1  UNL1       -0.3780
     17 H          -3.6028   -1.7479    1.1830 H       1  UNL1        0.0631
     18 H          -1.8316   -0.1243    1.5460 H       1  UNL1        0.0623
     19 H          -1.6409   -3.1181   -2.4004 H       1  UNL1        0.0631
     20 H           0.1434   -1.4951   -2.0505 H       1  UNL1        0.0623
     21 H          -0.2045    1.3607    1.8721 H       1  UNL1        0.0858
     22 H           2.0952    3.4307    2.2963 H       1  UNL1        0.0871
     23 H           4.3397    3.8093    0.6449 H       1  UNL1        0.0694
     24 H           3.9996    1.9083   -1.4244 H       1  UNL1        0.1398
@<TRIPOS>UNITY_ATOM_ATTR
15 1
charge 1
16 1
charge -1
@<TRIPOS>BOND
     1     1     2    3
     2     2     3    1
     3     3     4   ar
     4     4     5   ar
     5     3     6   ar
     6     6     7   ar
     7     7     8   ar
     8     8     9    1
     9     9    10   ar
    10    10    11   ar
    11    11    12   ar
    12    12    13   ar
    13    13    14   ar
    14    14    15   ar
    15    15    16   ar
    16     8     5   ar
    17    16     9   ar
    18    15    11   ar
    19     4    17    1
    20     5    18    1
    21     6    19    1
    22     7    20    1
    23    10    21    1
    24    12    22    1
    25    13    23    1
    26    14    24    1
