@<TRIPOS>MOLECULE
*****
 38 43 0 0 0
SMALL
GASTEIGER

@<TRIPOS>ATOM
      1 SI         -7.1369    0.6467    0.4849 Si      1  UNL1        0.0000
      2 C          -5.7256    1.0970    1.6953 C.2     1  UNL1        0.0000
      3 C          -4.5152    0.7766    1.1871 C.2     1  UNL1        0.0000
      4 C          -4.5434    0.1857   -0.1203 C.ar    1  UNL1        0.0000
      5 C          -5.8260    0.0049   -0.7055 C.ar    1  UNL1        0.0000
      6 C          -5.8217   -0.5695   -1.9384 C.ar    1  UNL1        0.0000
      7 S          -4.1958   -0.9031   -2.4080 S.2     1  UNL1        0.0000
      8 C          -3.5312   -0.2634   -0.9372 C.ar    1  UNL1        0.0000
      9 C          -2.0818   -0.2476   -0.7501 C.ar    1  UNL1        0.0000
     10 C          -1.4093    0.9439   -0.5064 C.ar    1  UNL1        0.0000
     11 N          -0.0808    1.0794   -0.3013 N.ar    1  UNL1        0.0000
     12 C           0.6439   -0.0764   -0.3491 C.ar    1  UNL1        0.0000
     13 C           0.0580   -1.3168   -0.5889 C.ar    1  UNL1        0.0000
     14 C          -1.3273   -1.4210   -0.7937 C.ar    1  UNL1        0.0000
     15 S           1.2277   -2.5665   -0.5837 S.2     1  UNL1        0.0000
     16 C           2.5210   -1.4786   -0.2659 C.ar    1  UNL1        0.0000
     17 C           3.8840   -1.8062   -0.1176 C.ar    1  UNL1        0.0000
     18 C           4.8192   -0.7908    0.1415 C.ar    1  UNL1        0.0000
     19 C           6.1836   -1.0870    0.2939 C.ar    1  UNL1        0.0000
     20 C           7.1114   -0.0765    0.5513 C.ar    1  UNL1        0.0000
     21 C           6.6866    1.2434    0.6595 C.ar    1  UNL1        0.0000
     22 C           5.3342    1.5526    0.5104 C.ar    1  UNL1        0.0000
     23 C           4.3905    0.5455    0.2513 C.ar    1  UNL1        0.0000
     24 C           3.0269    0.8490    0.0999 C.ar    1  UNL1        0.0000
     25 C           2.0698   -0.1645   -0.1620 C.ar    1  UNL1        0.0000
     26 H          -7.8382    1.8652    0.0102 H       1  UNL1        0.0000
     27 H          -8.0077   -0.4119    1.0529 H       1  UNL1        0.0000
     28 H          -5.9402    1.5422    2.6536 H       1  UNL1        0.0000
     29 H          -3.5897    0.9427    1.7271 H       1  UNL1        0.0000
     30 H          -6.6469   -0.8166   -2.5925 H       1  UNL1        0.0000
     31 H          -1.9555    1.8852   -0.4724 H       1  UNL1        0.0000
     32 H          -1.7892   -2.3873   -0.9715 H       1  UNL1        0.0000
     33 H           4.2017   -2.8422   -0.2050 H       1  UNL1        0.0000
     34 H           6.5362   -2.1131    0.2127 H       1  UNL1        0.0000
     35 H           8.1639   -0.3215    0.6665 H       1  UNL1        0.0000
     36 H           7.4057    2.0333    0.8595 H       1  UNL1        0.0000
     37 H           5.0196    2.5905    0.5979 H       1  UNL1        0.0000
     38 H           2.6786    1.8770    0.1813 H       1  UNL1        0.0000
@<TRIPOS>BOND
     1     1     2    1
     2     2     3    2
     3     3     4    1
     4     4     5   ar
     5     5     6   ar
     6     6     7   ar
     7     7     8   ar
     8     8     9    1
     9     9    10   ar
    10    10    11   ar
    11    11    12   ar
    12    12    13   ar
    13    13    14   ar
    14    13    15   ar
    15    15    16   ar
    16    16    17   ar
    17    17    18   ar
    18    18    19   ar
    19    19    20   ar
    20    20    21   ar
    21    21    22   ar
    22    22    23   ar
    23    23    24   ar
    24    24    25   ar
    25     5     1    1
    26    14     9   ar
    27    25    16   ar
    28     8     4   ar
    29    25    12   ar
    30    23    18   ar
    31     1    26    1
    32     1    27    1
    33     2    28    1
    34     3    29    1
    35     6    30    1
    36    10    31    1
    37    14    32    1
    38    17    33    1
    39    19    34    1
    40    20    35    1
    41    21    36    1
    42    22    37    1
    43    24    38    1
