@<TRIPOS>MOLECULE
*****
 36 39 0 0 0
SMALL
GASTEIGER

@<TRIPOS>ATOM
      1 N           4.4026   -2.4142   -3.2363 N.1     1  UNL1       -0.1909
      2 C           3.7713   -1.6883   -2.5867 C.1     1  UNL1        0.0992
      3 C           2.9862   -0.7976   -1.7837 C.ar    1  UNL1        0.0518
      4 C           1.9742   -0.0316   -2.3713 C.ar    1  UNL1       -0.0437
      5 C           1.1965    0.8232   -1.5850 C.ar    1  UNL1       -0.0499
      6 C           3.2304   -0.6906   -0.4106 C.ar    1  UNL1       -0.0437
      7 C           2.4514    0.1644    0.3739 C.ar    1  UNL1       -0.0499
      8 C           1.4130    0.9052   -0.2040 C.ar    1  UNL1        0.0179
      9 C           0.5984    1.7872    0.6265 C.ar    1  UNL1        0.1456
     10 N           1.0422    2.9408    1.1003 N.ar    1  UNL1       -0.2349
     11 C           0.0011    3.5033    1.7803 C.ar    1  UNL1        0.0538
     12 C          -1.0982    2.6838    1.7507 C.ar    1  UNL1        0.0666
     13 N          -0.7183    1.5472    1.0313 N.ar    1  UNL1       -0.2922
     14 C          -1.5990    0.4546    0.8434 C.ar    1  UNL1        0.0557
     15 C          -1.2424   -0.7938    0.1532 C.ar    1  UNL1       -0.0011
     16 C          -1.6849   -1.0336   -1.1550 C.ar    1  UNL1       -0.0526
     17 C          -1.3520   -2.2241   -1.8038 C.ar    1  UNL1       -0.0611
     18 C          -0.5854   -3.1859   -1.1474 C.ar    1  UNL1       -0.0617
     19 C          -0.1579   -2.9638    0.1609 C.ar    1  UNL1       -0.0611
     20 C          -0.4903   -1.7748    0.8127 C.ar    1  UNL1       -0.0526
     21 C          -2.8463    0.5371    1.3579 C.ar    1  UNL1       -0.0371
     22 C          -3.2584    1.7277    2.0791 C.ar    1  UNL1       -0.0578
     23 C          -2.4167    2.7576    2.2717 C.ar    1  UNL1       -0.0362
     24 H           1.7814   -0.0959   -3.4403 H       1  UNL1        0.0631
     25 H           0.4164    1.4195   -2.0531 H       1  UNL1        0.0625
     26 H           4.0246   -1.2686    0.0575 H       1  UNL1        0.0631
     27 H           2.6521    0.2500    1.4401 H       1  UNL1        0.0625
     28 H           0.0987    4.4704    2.2561 H       1  UNL1        0.0851
     29 H          -2.2838   -0.2918   -1.6784 H       1  UNL1        0.0624
     30 H          -1.6907   -2.4019   -2.8214 H       1  UNL1        0.0618
     31 H          -0.3249   -4.1120   -1.6540 H       1  UNL1        0.0618
     32 H           0.4340   -3.7175    0.6741 H       1  UNL1        0.0618
     33 H          -0.1534   -1.6166    1.8348 H       1  UNL1        0.0624
     34 H          -3.5685   -0.2694    1.2647 H       1  UNL1        0.0638
     35 H          -4.2718    1.7589    2.4683 H       1  UNL1        0.0619
     36 H          -2.7315    3.6412    2.8185 H       1  UNL1        0.0639
@<TRIPOS>BOND
     1     1     2    3
     2     2     3    1
     3     3     4   ar
     4     4     5   ar
     5     3     6   ar
     6     6     7   ar
     7     7     8   ar
     8     8     9    1
     9     9    10   ar
    10    10    11   ar
    11    11    12   ar
    12    12    13   ar
    13    13    14   ar
    14    14    15    1
    15    15    16   ar
    16    16    17   ar
    17    17    18   ar
    18    18    19   ar
    19    19    20   ar
    20    14    21   ar
    21    21    22   ar
    22    22    23   ar
    23     8     5   ar
    24    13     9   ar
    25    23    12   ar
    26    20    15   ar
    27     4    24    1
    28     5    25    1
    29     6    26    1
    30     7    27    1
    31    11    28    1
    32    16    29    1
    33    17    30    1
    34    18    31    1
    35    19    32    1
    36    20    33    1
    37    21    34    1
    38    22    35    1
    39    23    36    1
