@<TRIPOS>MOLECULE
*****
 29 31 0 0 0
SMALL
GASTEIGER

@<TRIPOS>ATOM
      1 N           3.7244   -1.3655    6.1678 N.1     1  UNL1       -0.1909
      2 C           3.0767   -1.0385    5.2619 C.1     1  UNL1        0.0992
      3 C           2.2765   -0.6347    4.1426 C.ar    1  UNL1        0.0519
      4 C           2.3698   -1.3237    2.9282 C.ar    1  UNL1       -0.0423
      5 C           1.5905   -0.9320    1.8349 C.ar    1  UNL1       -0.0333
      6 C           1.3999    0.4495    4.2612 C.ar    1  UNL1       -0.0423
      7 C           0.6183    0.8454    3.1710 C.ar    1  UNL1       -0.0333
      8 C           0.7116    0.1549    1.9536 C.ar    1  UNL1        0.0862
      9 N          -0.0812    0.5549    0.8443 N.ar    1  UNL1       -0.1497
     10 N          -0.0207   -0.0860   -0.3500 N.ar    1  UNL1       -0.1471
     11 C          -0.9032    0.5871   -1.1073 C.ar    1  UNL1        0.1130
     12 C          -1.4578    1.6157   -0.3143 C.ar    1  UNL1        0.0776
     13 N          -0.9436    1.6001    0.9162 N.ar    1  UNL1       -0.1549
     14 C          -1.1738    0.2381   -2.5032 C.ar    1  UNL1        0.0037
     15 C          -0.5035   -0.8368   -3.1091 C.ar    1  UNL1       -0.0525
     16 C          -0.7528   -1.1801   -4.4407 C.ar    1  UNL1       -0.0611
     17 C          -1.6766   -0.4528   -5.1860 C.ar    1  UNL1       -0.0617
     18 C          -2.3508    0.6165   -4.6014 C.ar    1  UNL1       -0.0611
     19 C          -2.1019    0.9608   -3.2686 C.ar    1  UNL1       -0.0525
     20 H           3.0482   -2.1689    2.8233 H       1  UNL1        0.0631
     21 H           1.6790   -1.4822    0.8992 H       1  UNL1        0.0640
     22 H           1.3181    0.9937    5.2007 H       1  UNL1        0.0631
     23 H          -0.0573    1.6919    3.2853 H       1  UNL1        0.0640
     24 H          -2.1975    2.3612   -0.5692 H       1  UNL1        0.0870
     25 H           0.2231   -1.4195   -2.5455 H       1  UNL1        0.0624
     26 H          -0.2239   -2.0155   -4.8924 H       1  UNL1        0.0618
     27 H          -1.8708   -0.7195   -6.2219 H       1  UNL1        0.0618
     28 H          -3.0725    1.1847   -5.1834 H       1  UNL1        0.0618
     29 H          -2.6483    1.8012   -2.8497 H       1  UNL1        0.0624
@<TRIPOS>BOND
     1     1     2    3
     2     2     3    1
     3     3     4   ar
     4     4     5   ar
     5     3     6   ar
     6     6     7   ar
     7     7     8   ar
     8     8     9    1
     9     9    10   ar
    10    10    11   ar
    11    11    12   ar
    12    12    13   ar
    13    11    14    1
    14    14    15   ar
    15    15    16   ar
    16    16    17   ar
    17    17    18   ar
    18    18    19   ar
    19     8     5   ar
    20    13     9   ar
    21    19    14   ar
    22     4    20    1
    23     5    21    1
    24     6    22    1
    25     7    23    1
    26    12    24    1
    27    15    25    1
    28    16    26    1
    29    17    27    1
    30    18    28    1
    31    19    29    1
