@<TRIPOS>MOLECULE
*****
 24 26 0 0 0
SMALL
GASTEIGER

@<TRIPOS>ATOM
      1 N          -0.9958   -3.1443    1.2534 N.1     1  UNL1       -0.1909
      2 C          -1.3982   -2.1900    0.7267 C.1     1  UNL1        0.0997
      3 C          -1.9575   -1.0495    0.0550 C.ar    1  UNL1        0.0579
      4 C          -3.3124   -1.0888   -0.3116 C.ar    1  UNL1       -0.0438
      5 C          -3.8989   -0.0099   -0.9750 C.ar    1  UNL1       -0.0605
      6 C          -3.1371    1.1157   -1.2772 C.ar    1  UNL1       -0.0612
      7 C          -1.7891    1.1639   -0.9170 C.ar    1  UNL1       -0.0543
      8 C          -1.1856    0.0866   -0.2476 C.ar    1  UNL1       -0.0166
      9 C           0.2372    0.1904    0.0946 C.ar    1  UNL1       -0.0533
     10 C           1.2065   -0.1095   -0.8104 C.ar    1  UNL1        0.0586
     11 N           2.3617    0.0881   -0.1304 N.ar    1  UNL1       -0.1378
     12 C           3.7337    0.0162   -0.2100 C.ar    1  UNL1        0.0741
     13 C           4.2863    0.3984    1.0916 C.ar    1  UNL1        0.0257
     14 C           3.1464    0.7020    1.9555 C.ar    1  UNL1        0.1932
     15 N           2.0102    0.5178    1.2139 N.ar    1  UNL1       -0.1438
     16 N           0.5692    0.5921    1.3740 N.ar    1  UNL1       -0.3780
     17 H          -3.9179   -1.9635   -0.0801 H       1  UNL1        0.0631
     18 H          -4.9493   -0.0473   -1.2531 H       1  UNL1        0.0618
     19 H          -3.5910    1.9601   -1.7900 H       1  UNL1        0.0618
     20 H          -1.2064    2.0531   -1.1513 H       1  UNL1        0.0623
     21 H           1.1516   -0.4425   -1.8337 H       1  UNL1        0.0858
     22 H           4.2230   -0.2896   -1.1191 H       1  UNL1        0.0871
     23 H           5.3303    0.4399    1.3597 H       1  UNL1        0.0694
     24 H           3.0833    1.0106    2.9821 H       1  UNL1        0.1398
@<TRIPOS>UNITY_ATOM_ATTR
15 1
charge 1
16 1
charge -1
@<TRIPOS>BOND
     1     1     2    3
     2     2     3    1
     3     3     4   ar
     4     4     5   ar
     5     5     6   ar
     6     6     7   ar
     7     3     8   ar
     8     8     9    1
     9     9    10   ar
    10    10    11   ar
    11    11    12   ar
    12    12    13   ar
    13    13    14   ar
    14    14    15   ar
    15    15    16   ar
    16     8     7   ar
    17    16     9   ar
    18    15    11   ar
    19     4    17    1
    20     5    18    1
    21     6    19    1
    22     7    20    1
    23    10    21    1
    24    12    22    1
    25    13    23    1
    26    14    24    1
