@<TRIPOS>MOLECULE
*****
 37 39 0 0 0
SMALL
GASTEIGER

@<TRIPOS>ATOM
      1 N          -1.8917   -2.1481   -1.9903 N.1     1  UNL1       -0.1956
      2 C          -1.7328   -1.2843   -1.2288 C.1     1  UNL1        0.0743
      3 C          -1.5547   -0.1420   -0.2790 C.3     1  UNL1        0.0923
      4 C          -0.0610    0.2003   -0.1367 C.ar    1  UNL1        0.0981
      5 C           1.0015   -0.6138   -0.2908 C.ar    1  UNL1        0.2048
      6 O           0.8105   -1.9471   -0.5596 O.3     1  UNL1       -0.4931
      7 N           2.3154   -0.1724   -0.1897 N.ar    1  UNL1       -0.2912
      8 C           2.4928    1.1971   -0.0932 C.ar    1  UNL1        0.1752
      9 N           1.5445    2.0447    0.1238 N.ar    1  UNL1       -0.1846
     10 C           0.2932    1.5582    0.3868 C.ar    1  UNL1        0.2822
     11 O          -0.5357    2.2023    1.0193 O.2     1  UNL1       -0.2653
     12 S           4.0638    1.9296   -0.3715 S.3     1  UNL1       -0.0874
     13 C           5.1698    0.6310    0.1868 C.3     1  UNL1        0.0027
     14 C           4.7412   -0.7013   -0.3860 C.3     1  UNL1       -0.0253
     15 C           3.3891   -1.1080    0.1713 C.3     1  UNL1        0.0291
     16 C          -2.3966    1.0337   -0.8887 C.3     1  UNL1       -0.0301
     17 C          -3.5955    1.4410   -0.0290 C.3     1  UNL1       -0.0513
     18 C          -4.4216    0.2282    0.3731 C.3     1  UNL1       -0.0529
     19 C          -3.6111   -0.8180    1.1352 C.3     1  UNL1       -0.0513
     20 C          -2.0987   -0.5778    1.1069 C.3     1  UNL1       -0.0301
     21 H           1.3189   -2.1494   -1.3657 H       1  UNL1        0.2937
     22 H           5.1786    0.6054    1.2817 H       1  UNL1        0.0381
     23 H           6.1845    0.8732   -0.1445 H       1  UNL1        0.0381
     24 H           4.7154   -0.6701   -1.4826 H       1  UNL1        0.0290
     25 H           5.4815   -1.4616   -0.1093 H       1  UNL1        0.0290
     26 H           3.1785   -2.1174   -0.2001 H       1  UNL1        0.0494
     27 H           3.4377   -1.1842    1.2652 H       1  UNL1        0.0494
     28 H          -2.7854    0.7563   -1.8797 H       1  UNL1        0.0284
     29 H          -1.7904    1.9243   -1.0884 H       1  UNL1        0.0284
     30 H          -4.2225    2.1434   -0.5905 H       1  UNL1        0.0266
     31 H          -3.2552    1.9740    0.8664 H       1  UNL1        0.0266
     32 H          -4.8432   -0.2333   -0.5289 H       1  UNL1        0.0265
     33 H          -5.2772    0.5454    0.9805 H       1  UNL1        0.0265
     34 H          -3.8395   -1.8115    0.7297 H       1  UNL1        0.0266
     35 H          -3.9404   -0.8436    2.1814 H       1  UNL1        0.0266
     36 H          -1.5950   -1.4914    1.4520 H       1  UNL1        0.0284
     37 H          -1.8683    0.1873    1.8598 H       1  UNL1        0.0284
@<TRIPOS>BOND
     1     1     2    3
     2     2     3    1
     3     3     4    1
     4     4     5   ar
     5     5     6    1
     6     5     7   ar
     7     7     8   ar
     8     8     9   ar
     9     9    10   ar
    10    10    11    2
    11     8    12    1
    12    12    13    1
    13    13    14    1
    14    14    15    1
    15     3    16    1
    16    16    17    1
    17    17    18    1
    18    18    19    1
    19    19    20    1
    20    20     3    1
    21    10     4   ar
    22    15     7    1
    23     6    21    1
    24    13    22    1
    25    13    23    1
    26    14    24    1
    27    14    25    1
    28    15    26    1
    29    15    27    1
    30    16    28    1
    31    16    29    1
    32    17    30    1
    33    17    31    1
    34    18    32    1
    35    18    33    1
    36    19    34    1
    37    19    35    1
    38    20    36    1
    39    20    37    1
