@<TRIPOS>MOLECULE
*****
 46 48 0 0 0
SMALL
GASTEIGER

@<TRIPOS>ATOM
      1 N           0.1817    3.7059    1.3334 N.1     1  UNL1       -0.1943
      2 C           0.3528    2.9312    0.4837 C.1     1  UNL1        0.0884
      3 C           0.5701    1.8874   -0.5621 C.3     1  UNL1        0.1216
      4 N           0.9870    2.4655   -1.8677 N.pl3   1  UNL1       -0.3263
      5 C           2.1788    3.1455   -2.1158 C.ar    1  UNL1        0.0282
      6 C           2.9938    3.7240   -1.1386 C.ar    1  UNL1       -0.0408
      7 C           4.1452    4.4456   -1.4817 C.ar    1  UNL1       -0.0600
      8 C           4.4907    4.6261   -2.8162 C.ar    1  UNL1       -0.0616
      9 C           3.6765    4.0959   -3.8084 C.ar    1  UNL1       -0.0600
     10 C           2.5294    3.3770   -3.4577 C.ar    1  UNL1       -0.0408
     11 C          -0.8122    1.2068   -0.7835 C.3     1  UNL1       -0.0055
     12 C          -0.6706   -0.2578   -1.1820 C.3     1  UNL1        0.0018
     13 N           0.0784   -1.0472   -0.2077 N.3     1  UNL1       -0.3018
     14 C          -0.7042   -2.0852    0.4780 C.3     1  UNL1        0.0029
     15 C          -1.8400   -1.5854    1.3891 C.3     1  UNL1       -0.0149
     16 C          -2.5877   -2.7346    2.0227 C.ar    1  UNL1       -0.0462
     17 C          -3.6856   -3.3131    1.3715 C.ar    1  UNL1       -0.0585
     18 C          -4.3642   -4.3871    1.9492 C.ar    1  UNL1       -0.0615
     19 C          -3.9501   -4.8946    3.1792 C.ar    1  UNL1       -0.0617
     20 C          -2.8562   -4.3299    3.8323 C.ar    1  UNL1       -0.0615
     21 C          -2.1758   -3.2558    3.2566 C.ar    1  UNL1       -0.0585
     22 C           0.9573   -0.2888    0.6787 C.3     1  UNL1        0.0018
     23 C           1.6184    0.8586   -0.0798 C.3     1  UNL1       -0.0055
     24 H           0.7681    1.8445   -2.6434 H       1  UNL1        0.1476
     25 H           2.7704    3.6423   -0.0812 H       1  UNL1        0.0636
     26 H           4.7633    4.8768   -0.6981 H       1  UNL1        0.0618
     27 H           5.3804    5.1910   -3.0799 H       1  UNL1        0.0618
     28 H           3.9229    4.2480   -4.8557 H       1  UNL1        0.0618
     29 H           1.8999    2.9955   -4.2586 H       1  UNL1        0.0636
     30 H          -1.3902    1.7412   -1.5494 H       1  UNL1        0.0308
     31 H          -1.4213    1.2512    0.1309 H       1  UNL1        0.0308
     32 H          -1.6628   -0.6827   -1.3766 H       1  UNL1        0.0427
     33 H          -0.1392   -0.3162   -2.1401 H       1  UNL1        0.0427
     34 H          -0.0177   -2.7138    1.0612 H       1  UNL1        0.0430
     35 H          -1.1194   -2.7594   -0.2834 H       1  UNL1        0.0430
     36 H          -2.5505   -0.9704    0.8239 H       1  UNL1        0.0326
     37 H          -1.4478   -0.9390    2.1830 H       1  UNL1        0.0326
     38 H          -4.0196   -2.9306    0.4097 H       1  UNL1        0.0620
     39 H          -5.2164   -4.8286    1.4392 H       1  UNL1        0.0618
     40 H          -4.4793   -5.7307    3.6286 H       1  UNL1        0.0618
     41 H          -2.5322   -4.7266    4.7910 H       1  UNL1        0.0618
     42 H          -1.3225   -2.8282    3.7781 H       1  UNL1        0.0620
     43 H           1.7382   -0.9536    1.0662 H       1  UNL1        0.0427
     44 H           0.4190    0.1143    1.5441 H       1  UNL1        0.0427
     45 H           2.1735    0.4392   -0.9308 H       1  UNL1        0.0308
     46 H           2.3692    1.3285    0.5679 H       1  UNL1        0.0308
@<TRIPOS>BOND
     1     1     2    3
     2     2     3    1
     3     3     4    1
     4     4     5    1
     5     5     6   ar
     6     6     7   ar
     7     7     8   ar
     8     8     9   ar
     9     9    10   ar
    10     3    11    1
    11    11    12    1
    12    12    13    1
    13    13    14    1
    14    14    15    1
    15    15    16    1
    16    16    17   ar
    17    17    18   ar
    18    18    19   ar
    19    19    20   ar
    20    20    21   ar
    21    13    22    1
    22    22    23    1
    23    23     3    1
    24    10     5   ar
    25    21    16   ar
    26     4    24    1
    27     6    25    1
    28     7    26    1
    29     8    27    1
    30     9    28    1
    31    10    29    1
    32    11    30    1
    33    11    31    1
    34    12    32    1
    35    12    33    1
    36    14    34    1
    37    14    35    1
    38    15    36    1
    39    15    37    1
    40    17    38    1
    41    18    39    1
    42    19    40    1
    43    20    41    1
    44    21    42    1
    45    22    43    1
    46    22    44    1
    47    23    45    1
    48    23    46    1
