@<TRIPOS>MOLECULE
*****
 37 39 0 0 0
SMALL
GASTEIGER

@<TRIPOS>ATOM
      1 N           3.3296    1.6527   -1.1018 N.1     1  UNL1       -0.1910
      2 C           2.5806    1.0387   -0.4628 C.1     1  UNL1        0.1005
      3 C           1.7035    0.2495    0.3396 C.2     1  UNL1        0.0941
      4 C           2.2025   -0.5307    1.3243 C.2     1  UNL1        0.1977
      5 N           3.5337   -0.7053    1.6198 N.pl3   1  UNL1       -0.3284
      6 O           1.3643   -1.2575    2.1650 O.2     1  UNL1       -0.4452
      7 C           0.0109   -0.9633    2.2068 C.2     1  UNL1        0.1144
      8 C          -0.5715   -0.2018    1.2678 C.2     1  UNL1        0.0415
      9 C          -2.0098    0.1616    1.4094 C.2     1  UNL1        0.1630
     10 O          -2.5448    0.8902    0.5762 O.2     1  UNL1       -0.2923
     11 C          -2.7619   -0.3251    2.6294 C.3     1  UNL1        0.0107
     12 C          -2.2179   -1.6580    3.1186 C.3     1  UNL1       -0.0392
     13 C          -0.7150   -1.5818    3.3657 C.3     1  UNL1        0.0064
     14 C           0.2030    0.3519    0.0946 C.3     1  UNL1        0.0343
     15 C          -0.2105   -0.4068   -1.1955 C.3     1  UNL1       -0.0158
     16 C          -0.0307    0.3962   -2.4625 C.ar    1  UNL1       -0.0464
     17 C          -0.8734    1.4850   -2.7292 C.ar    1  UNL1       -0.0585
     18 C          -0.7131    2.2353   -3.8944 C.ar    1  UNL1       -0.0615
     19 C           0.2872    1.9032   -4.8053 C.ar    1  UNL1       -0.0617
     20 C           1.1245    0.8180   -4.5539 C.ar    1  UNL1       -0.0615
     21 C           0.9649    0.0642   -3.3901 C.ar    1  UNL1       -0.0585
     22 H           3.7110   -1.5895    2.0895 H       1  UNL1        0.1451
     23 H           4.1822   -0.5182    0.8584 H       1  UNL1        0.1451
     24 H          -3.8182   -0.4418    2.3638 H       1  UNL1        0.0345
     25 H          -2.6826    0.4408    3.4087 H       1  UNL1        0.0345
     26 H          -2.7326   -1.9603    4.0375 H       1  UNL1        0.0273
     27 H          -2.4225   -2.4323    2.3675 H       1  UNL1        0.0273
     28 H          -0.3362   -2.5946    3.5469 H       1  UNL1        0.0344
     29 H          -0.5106   -0.9926    4.2676 H       1  UNL1        0.0344
     30 H          -0.0448    1.4197    0.0147 H       1  UNL1        0.0411
     31 H           0.3444   -1.3524   -1.2735 H       1  UNL1        0.0322
     32 H          -1.2674   -0.7045   -1.1607 H       1  UNL1        0.0322
     33 H          -1.6639    1.7542   -2.0296 H       1  UNL1        0.0620
     34 H          -1.3687    3.0797   -4.0900 H       1  UNL1        0.0618
     35 H           0.4156    2.4908   -5.7103 H       1  UNL1        0.0618
     36 H           1.9072    0.5616   -5.2631 H       1  UNL1        0.0618
     37 H           1.6312   -0.7767   -3.2133 H       1  UNL1        0.0620
@<TRIPOS>BOND
     1     1     2    3
     2     2     3    1
     3     3     4    2
     4     4     5    1
     5     4     6    1
     6     6     7    1
     7     7     8    2
     8     8     9    1
     9     9    10    2
    10     9    11    1
    11    11    12    1
    12    12    13    1
    13     8    14    1
    14    14    15    1
    15    15    16    1
    16    16    17   ar
    17    17    18   ar
    18    18    19   ar
    19    19    20   ar
    20    20    21   ar
    21    14     3    1
    22    21    16   ar
    23    13     7    1
    24     5    22    1
    25     5    23    1
    26    11    24    1
    27    11    25    1
    28    12    26    1
    29    12    27    1
    30    13    28    1
    31    13    29    1
    32    14    30    1
    33    15    31    1
    34    15    32    1
    35    17    33    1
    36    18    34    1
    37    19    35    1
    38    20    36    1
    39    21    37    1
