@<TRIPOS>MOLECULE
*****
 32 33 0 0 0
SMALL
GASTEIGER

@<TRIPOS>ATOM
      1 N          -3.1977   -0.5611   -1.8051 N.1     1  UNL1       -0.1911
      2 C          -2.5682   -0.6375   -0.8339 C.1     1  UNL1        0.0978
      3 C          -1.7864   -0.7597    0.3518 C.2     1  UNL1        0.0654
      4 C          -2.3284   -1.3298    1.4595 C.2     1  UNL1        0.0787
      5 N          -3.5687   -1.9353    1.5038 N.pl3   1  UNL1       -0.3518
      6 S          -1.3841   -1.2587    2.9687 S.3     1  UNL1       -0.0578
      7 C          -0.8696    0.4402    2.8213 C.2     1  UNL1        0.0787
      8 N          -0.9603    1.2385    3.9445 N.pl3   1  UNL1       -0.3518
      9 C          -0.4473    0.8674    1.6021 C.2     1  UNL1        0.0654
     10 C          -0.2195    2.2579    1.3908 C.1     1  UNL1        0.0978
     11 N          -0.0249    3.3902    1.2305 N.1     1  UNL1       -0.1911
     12 C          -0.3859   -0.1314    0.4371 C.3     1  UNL1        0.0396
     13 C           0.3148    0.3065   -0.9128 C.3     1  UNL1       -0.0106
     14 C           0.4167   -0.8533   -1.9043 C.2     1  UNL1       -0.0839
     15 C           1.5087   -1.1530   -2.6245 C.2     1  UNL1       -0.0876
     16 C           2.7725   -0.3549   -2.5913 C.3     1  UNL1       -0.0347
     17 C           2.5672    1.0030   -1.9328 C.3     1  UNL1       -0.0491
     18 C           1.7401    0.8754   -0.6549 C.3     1  UNL1       -0.0456
     19 H          -3.6479   -2.5911    2.2779 H       1  UNL1        0.1428
     20 H          -3.9122   -2.3110    0.6232 H       1  UNL1        0.1428
     21 H          -0.9517    0.6943    4.8043 H       1  UNL1        0.1428
     22 H          -0.3378    2.0425    3.9718 H       1  UNL1        0.1428
     23 H           0.2826   -0.9426    0.7775 H       1  UNL1        0.0418
     24 H          -0.2914    1.0897   -1.3876 H       1  UNL1        0.0352
     25 H          -0.4522   -1.4843   -2.0708 H       1  UNL1        0.0572
     26 H           1.4864   -2.0068   -3.2990 H       1  UNL1        0.0569
     27 H           3.1421   -0.2078   -3.6122 H       1  UNL1        0.0307
     28 H           3.5351   -0.9265   -2.0495 H       1  UNL1        0.0307
     29 H           2.0590    1.6827   -2.6288 H       1  UNL1        0.0268
     30 H           3.5413    1.4514   -1.7060 H       1  UNL1        0.0268
     31 H           1.6900    1.8699   -0.2089 H       1  UNL1        0.0271
     32 H           2.2777    0.2354    0.0575 H       1  UNL1        0.0271
@<TRIPOS>BOND
     1     1     2    3
     2     2     3    1
     3     3     4    2
     4     4     5    1
     5     4     6    1
     6     6     7    1
     7     7     8    1
     8     7     9    2
     9     9    10    1
    10    10    11    3
    11     9    12    1
    12    12    13    1
    13    13    14    1
    14    14    15    2
    15    15    16    1
    16    16    17    1
    17    17    18    1
    18    12     3    1
    19    18    13    1
    20     5    19    1
    21     5    20    1
    22     8    21    1
    23     8    22    1
    24    12    23    1
    25    13    24    1
    26    14    25    1
    27    15    26    1
    28    16    27    1
    29    16    28    1
    30    17    29    1
    31    17    30    1
    32    18    31    1
    33    18    32    1
