@<TRIPOS>MOLECULE
*****
 39 41 0 0 0
SMALL
GASTEIGER

@<TRIPOS>ATOM
      1 N           6.0026    3.2837    4.2418 N.1     1  UNL1       -0.1909
      2 C           5.0660    2.8774    3.6897 C.1     1  UNL1        0.0992
      3 C           3.9092    2.3756    3.0077 C.ar    1  UNL1        0.0518
      4 C           2.7209    2.1536    3.7088 C.ar    1  UNL1       -0.0438
      5 C           1.5931    1.6648    3.0412 C.ar    1  UNL1       -0.0533
      6 C           1.6415    1.3807    1.6702 C.ar    1  UNL1       -0.0238
      7 C           0.4260    0.8967    1.0035 C.2     1  UNL1       -0.0402
      8 C           0.4173   -0.0287    0.0292 C.2     1  UNL1        0.0025
      9 N          -0.6586   -0.5811   -0.6793 N.pl3   1  UNL1       -0.2759
     10 C          -0.4861   -1.8608   -1.3217 C.ar    1  UNL1        0.0382
     11 C           0.2861   -2.8793   -0.7331 C.ar    1  UNL1       -0.0400
     12 C           0.4491   -4.1179   -1.3612 C.ar    1  UNL1       -0.0600
     13 C          -0.1563   -4.3618   -2.5909 C.ar    1  UNL1       -0.0616
     14 C          -0.9263   -3.3702   -3.1922 C.ar    1  UNL1       -0.0600
     15 C          -1.0901   -2.1326   -2.5630 C.ar    1  UNL1       -0.0400
     16 C          -1.9001    0.1377   -0.7843 C.ar    1  UNL1        0.0382
     17 C          -3.1249   -0.5197   -0.5737 C.ar    1  UNL1       -0.0400
     18 C          -4.3372    0.1669   -0.6792 C.ar    1  UNL1       -0.0600
     19 C          -4.3448    1.5219   -1.0014 C.ar    1  UNL1       -0.0616
     20 C          -3.1426    2.1908   -1.2198 C.ar    1  UNL1       -0.0600
     21 C          -1.9303    1.5040   -1.1131 C.ar    1  UNL1       -0.0400
     22 C           2.8321    1.6216    0.9713 C.ar    1  UNL1       -0.0533
     23 C           3.9615    2.1110    1.6363 C.ar    1  UNL1       -0.0438
     24 H           2.6614    2.3593    4.7760 H       1  UNL1        0.0631
     25 H           0.6767    1.4991    3.6050 H       1  UNL1        0.0624
     26 H          -0.5108    1.3069    1.3718 H       1  UNL1        0.0636
     27 H           1.3624   -0.4695   -0.2828 H       1  UNL1        0.0787
     28 H           0.7480   -2.7270    0.2392 H       1  UNL1        0.0636
     29 H           1.0444   -4.8924   -0.8847 H       1  UNL1        0.0618
     30 H          -0.0298   -5.3245   -3.0793 H       1  UNL1        0.0618
     31 H          -1.3989   -3.5547   -4.1534 H       1  UNL1        0.0618
     32 H          -1.6824   -1.3694   -3.0626 H       1  UNL1        0.0636
     33 H          -3.1364   -1.5748   -0.3096 H       1  UNL1        0.0636
     34 H          -5.2731   -0.3581   -0.5075 H       1  UNL1        0.0618
     35 H          -5.2878    2.0560   -1.0847 H       1  UNL1        0.0618
     36 H          -3.1460    3.2463   -1.4786 H       1  UNL1        0.0618
     37 H          -1.0040    2.0381   -1.3091 H       1  UNL1        0.0636
     38 H           2.8920    1.4424   -0.1003 H       1  UNL1        0.0624
     39 H           4.8763    2.2879    1.0735 H       1  UNL1        0.0631
@<TRIPOS>BOND
     1     1     2    3
     2     2     3    1
     3     3     4   ar
     4     4     5   ar
     5     5     6   ar
     6     6     7    1
     7     7     8    2
     8     8     9    1
     9     9    10    1
    10    10    11   ar
    11    11    12   ar
    12    12    13   ar
    13    13    14   ar
    14    14    15   ar
    15     9    16    1
    16    16    17   ar
    17    17    18   ar
    18    18    19   ar
    19    19    20   ar
    20    20    21   ar
    21     6    22   ar
    22    22    23   ar
    23    23     3   ar
    24    15    10   ar
    25    21    16   ar
    26     4    24    1
    27     5    25    1
    28     7    26    1
    29     8    27    1
    30    11    28    1
    31    12    29    1
    32    13    30    1
    33    14    31    1
    34    15    32    1
    35    17    33    1
    36    18    34    1
    37    19    35    1
    38    20    36    1
    39    21    37    1
    40    22    38    1
    41    23    39    1
