@<TRIPOS>MOLECULE
*****
 25 27 0 0 0
SMALL
GASTEIGER

@<TRIPOS>ATOM
      1 N           5.8704    1.1378    1.9461 N.1     1  UNL1       -0.1909
      2 C           4.8201    0.9722    1.4811 C.1     1  UNL1        0.0992
      3 C           3.5187    0.7652    0.9161 C.ar    1  UNL1        0.0518
      4 C           2.3927    1.3364    1.5176 C.ar    1  UNL1       -0.0437
      5 C           1.1219    1.1349    0.9672 C.ar    1  UNL1       -0.0498
      6 C           0.9607    0.3511   -0.1837 C.ar    1  UNL1        0.0197
      7 C           2.0976   -0.2009   -0.7908 C.ar    1  UNL1       -0.0498
      8 C           3.3687   -0.0017   -0.2425 C.ar    1  UNL1       -0.0437
      9 C          -0.3508    0.1353   -0.7908 C.ar    1  UNL1        0.1685
     10 N          -0.6267    0.2885   -2.0755 N.ar    1  UNL1       -0.1285
     11 N          -1.9591    0.0186   -2.2792 N.ar    1  UNL1       -0.1291
     12 C          -2.4769   -0.3276   -1.1235 C.ar    1  UNL1        0.1613
     13 N          -1.4950   -0.2971   -0.1413 N.ar    1  UNL1       -0.2825
     14 C          -1.7361   -0.6745    1.1829 C.ar    1  UNL1        0.0132
     15 C          -2.9737   -1.0574    1.5425 C.ar    1  UNL1       -0.0450
     16 C          -4.0291   -1.0680    0.5409 C.ar    1  UNL1       -0.0569
     17 C          -3.7880   -0.7201   -0.7382 C.ar    1  UNL1       -0.0170
     18 H           2.4972    1.9509    2.4104 H       1  UNL1        0.0631
     19 H           0.2658    1.6173    1.4349 H       1  UNL1        0.0625
     20 H           1.9960   -0.7888   -1.7029 H       1  UNL1        0.0625
     21 H           4.2352   -0.4433   -0.7317 H       1  UNL1        0.0631
     22 H          -0.9074   -0.6575    1.8782 H       1  UNL1        0.0814
     23 H          -3.2094   -1.3655    2.5560 H       1  UNL1        0.0632
     24 H          -5.0237   -1.3729    0.8536 H       1  UNL1        0.0619
     25 H          -4.5691   -0.7330   -1.4901 H       1  UNL1        0.0655
@<TRIPOS>BOND
     1     1     2    3
     2     2     3    1
     3     3     4   ar
     4     4     5   ar
     5     5     6   ar
     6     6     7   ar
     7     7     8   ar
     8     6     9    1
     9     9    10   ar
    10    10    11   ar
    11    11    12   ar
    12    12    13   ar
    13    13    14   ar
    14    14    15   ar
    15    15    16   ar
    16    16    17   ar
    17     8     3   ar
    18    13     9   ar
    19    17    12   ar
    20     4    18    1
    21     5    19    1
    22     7    20    1
    23     8    21    1
    24    14    22    1
    25    15    23    1
    26    16    24    1
    27    17    25    1
