@<TRIPOS>MOLECULE
*****
 24 26 0 0 0
SMALL
GASTEIGER

@<TRIPOS>ATOM
      1 N          -4.0378    3.6591    1.2872 N.1     1  UNL1       -0.1909
      2 C          -3.4917    2.6347    1.2754 C.1     1  UNL1        0.0992
      3 C          -2.8245    1.3663    1.2704 C.ar    1  UNL1        0.0523
      4 C          -3.3907    0.2743    1.9354 C.ar    1  UNL1       -0.0443
      5 C          -2.7407   -0.9595    1.9279 C.ar    1  UNL1       -0.0600
      6 C          -1.5232   -1.1029    1.2586 C.ar    1  UNL1       -0.0555
      7 C          -0.9400   -0.0163    0.5909 C.ar    1  UNL1       -0.0328
      8 C           0.3415   -0.1681   -0.1133 C.ar    1  UNL1       -0.0545
      9 C           1.4414   -0.6739    0.5084 C.ar    1  UNL1        0.0585
     10 N           2.4053   -0.6485   -0.4441 N.ar    1  UNL1       -0.1378
     11 C           3.7249   -0.9349   -0.7093 C.ar    1  UNL1        0.0741
     12 C           3.9985   -0.5721   -2.1017 C.ar    1  UNL1        0.0257
     13 C           2.7479   -0.0477   -2.6485 C.ar    1  UNL1        0.1932
     14 N           1.8114   -0.1001   -1.6507 N.ar    1  UNL1       -0.1438
     15 N           0.4151    0.2309   -1.4365 N.ar    1  UNL1       -0.3780
     16 C          -1.6043    1.2189    0.6008 C.ar    1  UNL1       -0.0382
     17 H          -4.3399    0.3765    2.4577 H       1  UNL1        0.0630
     18 H          -3.1831   -1.8124    2.4368 H       1  UNL1        0.0618
     19 H          -1.0385   -2.0770    1.2465 H       1  UNL1        0.0623
     20 H           1.5939   -1.0254    1.5154 H       1  UNL1        0.0858
     21 H           4.3668   -1.3527    0.0476 H       1  UNL1        0.0871
     22 H           4.9394   -0.6723   -2.6196 H       1  UNL1        0.0694
     23 H           2.4901    0.3326   -3.6190 H       1  UNL1        0.1398
     24 H          -1.1619    2.0704    0.0856 H       1  UNL1        0.0636
@<TRIPOS>UNITY_ATOM_ATTR
14 1
charge 1
15 1
charge -1
@<TRIPOS>BOND
     1     1     2    3
     2     2     3    1
     3     3     4   ar
     4     4     5   ar
     5     5     6   ar
     6     6     7   ar
     7     7     8    1
     8     8     9   ar
     9     9    10   ar
    10    10    11   ar
    11    11    12   ar
    12    12    13   ar
    13    13    14   ar
    14    14    15   ar
    15     7    16   ar
    16    16     3   ar
    17    15     8   ar
    18    14    10   ar
    19     4    17    1
    20     5    18    1
    21     6    19    1
    22     9    20    1
    23    11    21    1
    24    12    22    1
    25    13    23    1
    26    16    24    1
