@<TRIPOS>MOLECULE
*****
 32 36 0 0 0
SMALL
GASTEIGER

@<TRIPOS>ATOM
      1 SI         -3.8414    2.9609   -0.5504 Si      1  UNL1        0.0000
      2 C          -5.3872    1.8946   -0.6261 C.2     1  UNL1        0.0000
      3 C          -5.1215    0.5770   -0.5686 C.2     1  UNL1        0.0000
      4 C          -3.6874    0.2616   -0.4597 C.ar    1  UNL1        0.0000
      5 C          -3.1614   -1.0237   -0.3851 C.ar    1  UNL1        0.0000
      6 C          -1.7715   -1.2079   -0.2832 C.ar    1  UNL1        0.0000
      7 C          -1.2337   -2.4914   -0.2078 C.ar    1  UNL1        0.0000
      8 C           0.1457   -2.6878   -0.1062 C.ar    1  UNL1        0.0000
      9 C           1.0334   -1.5885   -0.0771 C.ar    1  UNL1        0.0000
     10 C           2.4645   -1.5695    0.0217 C.ar    1  UNL1        0.0000
     11 C           3.0088   -0.3015    0.0220 C.ar    1  UNL1        0.0000
     12 S           1.7784    0.8739   -0.0983 S.2     1  UNL1        0.0000
     13 C           0.5032   -0.2965   -0.1522 C.ar    1  UNL1        0.0000
     14 C          -0.9090   -0.0757   -0.2568 C.ar    1  UNL1        0.0000
     15 C          -1.4519    1.2283   -0.3331 C.ar    1  UNL1        0.0000
     16 C          -2.8310    1.3830   -0.4335 C.ar    1  UNL1        0.0000
     17 C           4.4190    0.0064    0.1108 C.ar    1  UNL1        0.0000
     18 N           5.3219   -0.9531    0.2019 N.ar    1  UNL1        0.0000
     19 C           6.5894   -0.4104    0.2740 C.ar    1  UNL1        0.0000
     20 C           6.6492    0.9639    0.2375 C.ar    1  UNL1        0.0000
     21 S           5.0671    1.6043    0.1087 S.2     1  UNL1        0.0000
     22 H          -3.7872    3.7775    0.6880 H       1  UNL1        0.0000
     23 H          -3.6134    3.7033   -1.8153 H       1  UNL1        0.0000
     24 H          -6.3641    2.3457   -0.7072 H       1  UNL1        0.0000
     25 H          -5.8714   -0.2021   -0.5975 H       1  UNL1        0.0000
     26 H          -3.8309   -1.8797   -0.4062 H       1  UNL1        0.0000
     27 H          -1.8827   -3.3648   -0.2270 H       1  UNL1        0.0000
     28 H           0.5382   -3.7007   -0.0490 H       1  UNL1        0.0000
     29 H           3.0739   -2.4640    0.0905 H       1  UNL1        0.0000
     30 H          -0.8109    2.1052   -0.3146 H       1  UNL1        0.0000
     31 H           7.4444   -1.0709    0.3529 H       1  UNL1        0.0000
     32 H           7.5196    1.6025    0.2792 H       1  UNL1        0.0000
@<TRIPOS>BOND
     1     1     2    1
     2     2     3    2
     3     3     4    1
     4     4     5   ar
     5     5     6   ar
     6     6     7   ar
     7     7     8   ar
     8     8     9   ar
     9     9    10   ar
    10    10    11   ar
    11    11    12   ar
    12    12    13   ar
    13    13    14   ar
    14    14    15   ar
    15    15    16   ar
    16    11    17    1
    17    17    18   ar
    18    18    19   ar
    19    19    20   ar
    20    20    21   ar
    21    16     1    1
    22    21    17   ar
    23    16     4   ar
    24    14     6   ar
    25    13     9   ar
    26     1    22    1
    27     1    23    1
    28     2    24    1
    29     3    25    1
    30     5    26    1
    31     7    27    1
    32     8    28    1
    33    10    29    1
    34    15    30    1
    35    19    31    1
    36    20    32    1
