@<TRIPOS>MOLECULE
*****
 34 38 0 0 0
SMALL
GASTEIGER

@<TRIPOS>ATOM
      1 N          -6.1275    1.8440   -2.1698 N.1     1  UNL1       -0.1909
      2 C          -5.0031    1.6550   -1.9537 C.1     1  UNL1        0.0992
      3 C          -3.6165    1.4141   -1.6778 C.ar    1  UNL1        0.0524
      4 C          -3.2490    0.5518   -0.6312 C.ar    1  UNL1       -0.0359
      5 C          -1.8973    0.2883   -0.3273 C.ar    1  UNL1       -0.0041
      6 C          -0.9263    0.9282   -1.1200 C.ar    1  UNL1        0.0256
      7 C          -1.2924    1.7906   -2.1668 C.ar    1  UNL1       -0.0493
      8 C          -2.6341    2.0338   -2.4461 C.ar    1  UNL1       -0.0436
      9 C           0.4816    0.6821   -0.8381 C.ar    1  UNL1        0.1469
     10 N           1.4963    1.2056   -1.4896 N.ar    1  UNL1       -0.2272
     11 C           2.6092    0.7013   -0.8886 C.ar    1  UNL1        0.0900
     12 C           3.9501    0.9593   -1.2201 C.ar    1  UNL1       -0.0342
     13 C           4.9658    0.3480   -0.4871 C.ar    1  UNL1       -0.0596
     14 C           4.6488   -0.5072    0.5603 C.ar    1  UNL1       -0.0597
     15 C           3.3158   -0.7762    0.9054 C.ar    1  UNL1       -0.0357
     16 C           2.2865   -0.1606    0.1670 C.ar    1  UNL1        0.0739
     17 N           0.8892   -0.1636    0.1881 N.ar    1  UNL1       -0.2915
     18 C          -0.0633   -0.8375    1.0216 C.ar    1  UNL1        0.0563
     19 C          -1.4500   -0.6168    0.7703 C.ar    1  UNL1        0.0067
     20 C          -2.3746   -1.2874    1.5997 C.ar    1  UNL1       -0.0520
     21 C          -1.9632   -2.1356    2.6283 C.ar    1  UNL1       -0.0611
     22 C          -0.6122   -2.3368    2.8560 C.ar    1  UNL1       -0.0598
     23 C           0.3334   -1.6924    2.0583 C.ar    1  UNL1       -0.0372
     24 H          -4.0506    0.0913   -0.0595 H       1  UNL1        0.0637
     25 H          -0.5216    2.2740   -2.7662 H       1  UNL1        0.0625
     26 H          -2.8998    2.7046   -3.2606 H       1  UNL1        0.0631
     27 H           4.1810    1.6299   -2.0412 H       1  UNL1        0.0639
     28 H           6.0053    0.5430   -0.7381 H       1  UNL1        0.0618
     29 H           5.4506   -0.9788    1.1259 H       1  UNL1        0.0618
     30 H           3.1408   -1.4504    1.7305 H       1  UNL1        0.0639
     31 H          -3.4464   -1.1704    1.4709 H       1  UNL1        0.0624
     32 H          -2.7020   -2.6369    3.2490 H       1  UNL1        0.0618
     33 H          -0.2886   -2.9976    3.6571 H       1  UNL1        0.0618
     34 H           1.3643   -1.8965    2.2934 H       1  UNL1        0.0638
@<TRIPOS>BOND
     1     1     2    3
     2     2     3    1
     3     3     4   ar
     4     4     5   ar
     5     5     6   ar
     6     6     7   ar
     7     7     8   ar
     8     6     9   ar
     9     9    10   ar
    10    10    11   ar
    11    11    12   ar
    12    12    13   ar
    13    13    14   ar
    14    14    15   ar
    15    11    16   ar
    16    16    17   ar
    17    17    18   ar
    18    18    19   ar
    19    19    20   ar
    20    20    21   ar
    21    21    22   ar
    22    22    23   ar
    23     8     3   ar
    24    19     5   ar
    25    17     9   ar
    26    16    15   ar
    27    23    18   ar
    28     4    24    1
    29     7    25    1
    30     8    26    1
    31    12    27    1
    32    13    28    1
    33    14    29    1
    34    15    30    1
    35    20    31    1
    36    21    32    1
    37    22    33    1
    38    23    34    1
