@<TRIPOS>MOLECULE
*****
 24 27 0 0 0
SMALL
GASTEIGER

@<TRIPOS>ATOM
      1 N           5.4214    0.9345    1.2080 N.1     1  UNL1       -0.1909
      2 C           4.3980    0.7347    0.6987 C.1     1  UNL1        0.0992
      3 C           3.1293    0.4877    0.0750 C.ar    1  UNL1        0.0524
      4 C           1.9773    0.3873    0.8724 C.ar    1  UNL1       -0.0345
      5 C           0.7813    0.1494    0.2291 C.ar    1  UNL1        0.0107
      6 C           0.7229    0.0098   -1.2100 C.ar    1  UNL1        0.0270
      7 C          -0.6592   -0.2307   -1.5744 C.ar    1  UNL1        0.1463
      8 N          -1.4713   -0.4440   -2.5806 N.ar    1  UNL1       -0.2349
      9 C          -2.7396   -0.5784   -1.9665 C.ar    1  UNL1        0.0538
     10 C          -2.6602   -0.4413   -0.5892 C.ar    1  UNL1        0.0666
     11 N          -1.3415   -0.2275   -0.4134 N.ar    1  UNL1       -0.2921
     12 C          -0.6020   -0.0130    0.7258 C.ar    1  UNL1        0.0564
     13 C          -1.2856   -0.0105    1.8815 C.ar    1  UNL1       -0.0371
     14 C          -2.7504   -0.2381    1.7958 C.ar    1  UNL1       -0.0578
     15 C          -3.4078   -0.4435    0.6206 C.ar    1  UNL1       -0.0362
     16 C           1.8503    0.1077   -1.9933 C.ar    1  UNL1       -0.0492
     17 C           3.0633    0.3495   -1.3360 C.ar    1  UNL1       -0.0436
     18 H           2.0238    0.4924    1.9518 H       1  UNL1        0.0637
     19 H          -3.6188   -0.7652   -2.5699 H       1  UNL1        0.0851
     20 H          -0.8246    0.1467    2.8487 H       1  UNL1        0.0638
     21 H          -3.2987   -0.2349    2.7345 H       1  UNL1        0.0619
     22 H          -4.4804   -0.6066    0.5950 H       1  UNL1        0.0639
     23 H           1.7987    0.0020   -3.0722 H       1  UNL1        0.0625
     24 H           3.9738    0.4320   -1.9302 H       1  UNL1        0.0631
@<TRIPOS>BOND
     1     1     2    3
     2     2     3    1
     3     3     4   ar
     4     4     5   ar
     5     5     6   ar
     6     6     7   ar
     7     7     8   ar
     8     8     9   ar
     9     9    10   ar
    10    10    11   ar
    11    11    12   ar
    12    12    13   ar
    13    13    14   ar
    14    14    15   ar
    15     6    16   ar
    16    16    17   ar
    17    17     3   ar
    18    12     5   ar
    19    11     7   ar
    20    15    10   ar
    21     4    18    1
    22     9    19    1
    23    13    20    1
    24    14    21    1
    25    15    22    1
    26    16    23    1
    27    17    24    1
