@<TRIPOS>MOLECULE
*****
 26 28 0 0 0
SMALL
GASTEIGER

@<TRIPOS>ATOM
      1 N          -2.9823    2.4459   -2.3772 N.1     1  UNL1       -0.1907
      2 C          -2.0536    2.1515   -1.7451 C.1     1  UNL1        0.1051
      3 C          -0.9050    1.8383   -0.9636 C.ar    1  UNL1        0.1230
      4 C           0.0501    2.7461   -0.5763 C.ar    1  UNL1        0.2027
      5 N           0.2284    4.0606   -0.7708 N.pl3   1  UNL1       -0.3282
      6 O           1.0007    2.1337    0.1655 O.2     1  UNL1       -0.4365
      7 C           0.6849    0.7992    0.2546 C.ar    1  UNL1        0.1841
      8 C           1.5659   -0.1064    0.9258 C.ar    1  UNL1        0.1705
      9 C           2.2581   -1.1880    0.4051 C.ar    1  UNL1       -0.0128
     10 C           3.0184   -1.7454    1.4618 C.ar    1  UNL1       -0.0232
     11 C           2.7604   -0.9675    2.5635 C.ar    1  UNL1        0.0927
     12 O           1.8925    0.0266    2.2498 O.2     1  UNL1       -0.4598
     13 C          -0.5174    0.5870   -0.4074 C.ar    1  UNL1        0.0854
     14 C          -1.3327   -0.7379   -0.5313 C.ar    1  UNL1        0.1398
     15 C          -1.0964   -1.9591    0.0702 C.ar    1  UNL1       -0.0157
     16 C          -2.1264   -2.8374   -0.3530 C.ar    1  UNL1       -0.0233
     17 C          -2.9368   -2.1005   -1.1794 C.ar    1  UNL1        0.0926
     18 O          -2.4703   -0.8330   -1.2865 O.2     1  UNL1       -0.4628
     19 H          -0.5459    4.6542   -1.0548 H       1  UNL1        0.1452
     20 H           0.9080    4.5345   -0.1816 H       1  UNL1        0.1452
     21 H           2.2213   -1.5259   -0.6218 H       1  UNL1        0.0656
     22 H           3.6805   -2.5990    1.4225 H       1  UNL1        0.0649
     23 H           3.1015   -0.9824    3.5895 H       1  UNL1        0.1029
     24 H          -0.2994   -2.2062    0.7547 H       1  UNL1        0.0655
     25 H          -2.2652   -3.8738   -0.0791 H       1  UNL1        0.0649
     26 H          -3.8393   -2.3154   -1.7351 H       1  UNL1        0.1029
@<TRIPOS>BOND
     1     1     2    3
     2     2     3    1
     3     3     4   ar
     4     4     5    1
     5     4     6   ar
     6     6     7   ar
     7     7     8    1
     8     8     9   ar
     9     9    10   ar
    10    10    11   ar
    11    11    12   ar
    12     7    13   ar
    13    13    14    1
    14    14    15   ar
    15    15    16   ar
    16    16    17   ar
    17    17    18   ar
    18    13     3   ar
    19    18    14   ar
    20    12     8   ar
    21     5    19    1
    22     5    20    1
    23     9    21    1
    24    10    22    1
    25    11    23    1
    26    15    24    1
    27    16    25    1
    28    17    26    1
