@<TRIPOS>MOLECULE
*****
 46 50 0 0 0
SMALL
GASTEIGER

@<TRIPOS>ATOM
      1 N           8.1609    1.0447    0.7102 N.1     1  UNL1       -0.1909
      2 C           7.0150    0.8980    0.5994 C.1     1  UNL1        0.0992
      3 C           5.5992    0.7168    0.4626 C.ar    1  UNL1        0.0519
      4 C           5.0881   -0.0351   -0.6014 C.ar    1  UNL1       -0.0426
      5 C           3.7086   -0.2116   -0.7347 C.ar    1  UNL1       -0.0388
      6 C           2.8284    0.3621    0.1949 C.ar    1  UNL1        0.0390
      7 N           1.4155    0.1812    0.0583 N.pl3   1  UNL1       -0.2656
      8 C           0.7639   -0.9424    0.6872 C.ar    1  UNL1        0.0604
      9 C           1.4961   -1.8836    1.4463 C.ar    1  UNL1       -0.0382
     10 C           0.8758   -2.9731    2.0582 C.ar    1  UNL1       -0.0599
     11 C          -0.4924   -3.1482    1.9260 C.ar    1  UNL1       -0.0599
     12 C          -1.2382   -2.2336    1.1821 C.ar    1  UNL1       -0.0382
     13 C          -0.6346   -1.1214    0.5521 C.ar    1  UNL1        0.0604
     14 N          -1.4155   -0.1812   -0.2152 N.pl3   1  UNL1       -0.2656
     15 C          -2.8284   -0.3621   -0.3518 C.ar    1  UNL1        0.0390
     16 C          -3.3461   -1.1147   -1.4164 C.ar    1  UNL1       -0.0388
     17 C          -4.7256   -1.2914   -1.5498 C.ar    1  UNL1       -0.0426
     18 C          -5.5992   -0.7168   -0.6195 C.ar    1  UNL1        0.0519
     19 C          -7.0150   -0.8980   -0.7564 C.1     1  UNL1        0.0992
     20 N          -8.1609   -1.0447   -0.8671 N.1     1  UNL1       -0.1909
     21 C          -5.0881    0.0351    0.4445 C.ar    1  UNL1       -0.0426
     22 C          -3.7086    0.2117    0.5778 C.ar    1  UNL1       -0.0388
     23 C          -0.7639    0.9424   -0.8441 C.ar    1  UNL1        0.0604
     24 C          -1.4961    1.8836   -1.6032 C.ar    1  UNL1       -0.0382
     25 C          -0.8758    2.9731   -2.2151 C.ar    1  UNL1       -0.0599
     26 C           0.4924    3.1483   -2.0828 C.ar    1  UNL1       -0.0599
     27 C           1.2382    2.2336   -1.3389 C.ar    1  UNL1       -0.0382
     28 C           0.6346    1.1214   -0.7090 C.ar    1  UNL1        0.0604
     29 C           3.3461    1.1147    1.2595 C.ar    1  UNL1       -0.0388
     30 C           4.7256    1.2913    1.3929 C.ar    1  UNL1       -0.0426
     31 H           5.7567   -0.4872   -1.3317 H       1  UNL1        0.0631
     32 H           3.3125   -0.7963   -1.5622 H       1  UNL1        0.0637
     33 H           2.5703   -1.7841    1.5754 H       1  UNL1        0.0637
     34 H           1.4650   -3.6806    2.6359 H       1  UNL1        0.0618
     35 H          -0.9843   -3.9941    2.3992 H       1  UNL1        0.0618
     36 H          -2.3077   -2.4086    1.1040 H       1  UNL1        0.0637
     37 H          -2.6680   -1.5618   -2.1401 H       1  UNL1        0.0637
     38 H          -5.1101   -1.8783   -2.3818 H       1  UNL1        0.0631
     39 H          -5.7567    0.4872    1.1748 H       1  UNL1        0.0631
     40 H          -3.3125    0.7963    1.4053 H       1  UNL1        0.0637
     41 H          -2.5703    1.7842   -1.7323 H       1  UNL1        0.0637
     42 H          -1.4650    3.6806   -2.7927 H       1  UNL1        0.0618
     43 H           0.9843    3.9942   -2.5560 H       1  UNL1        0.0618
     44 H           2.3077    2.4086   -1.2609 H       1  UNL1        0.0637
     45 H           2.6680    1.5618    1.9832 H       1  UNL1        0.0637
     46 H           5.1102    1.8783    2.2250 H       1  UNL1        0.0631
@<TRIPOS>BOND
     1     1     2    3
     2     2     3    1
     3     3     4   ar
     4     4     5   ar
     5     5     6   ar
     6     6     7    1
     7     7     8    1
     8     8     9   ar
     9     9    10   ar
    10    10    11   ar
    11    11    12   ar
    12    12    13   ar
    13    13    14    1
    14    14    15    1
    15    15    16   ar
    16    16    17   ar
    17    17    18   ar
    18    18    19    1
    19    19    20    3
    20    18    21   ar
    21    21    22   ar
    22    14    23    1
    23    23    24   ar
    24    24    25   ar
    25    25    26   ar
    26    26    27   ar
    27    27    28   ar
    28     6    29   ar
    29    29    30   ar
    30    30     3   ar
    31    28     7    1
    32    13     8   ar
    33    22    15   ar
    34    28    23   ar
    35     4    31    1
    36     5    32    1
    37     9    33    1
    38    10    34    1
    39    11    35    1
    40    12    36    1
    41    16    37    1
    42    17    38    1
    43    21    39    1
    44    22    40    1
    45    24    41    1
    46    25    42    1
    47    26    43    1
    48    27    44    1
    49    29    45    1
    50    30    46    1
