@<TRIPOS>MOLECULE
*****
 39 42 0 0 0
SMALL
GASTEIGER

@<TRIPOS>ATOM
      1 N           2.4694   -2.6212    2.2949 N.1     1  UNL1       -0.1909
      2 C           2.9381   -1.8634    1.5504 C.1     1  UNL1        0.0998
      3 C           3.5665   -0.9504    0.6357 C.ar    1  UNL1        0.0595
      4 C           4.9688   -0.9584    0.5521 C.ar    1  UNL1       -0.0438
      5 C           5.6324   -0.0864   -0.3104 C.ar    1  UNL1       -0.0605
      6 C           4.9013    0.7998   -1.0946 C.ar    1  UNL1       -0.0611
      7 C           3.5070    0.8140   -1.0173 C.ar    1  UNL1       -0.0528
      8 C           2.8144   -0.0582   -0.1555 C.ar    1  UNL1       -0.0005
      9 C           1.3453   -0.0014   -0.1141 C.ar    1  UNL1       -0.0160
     10 C           0.5667   -1.0200   -0.6746 C.ar    1  UNL1       -0.0490
     11 C          -0.8375   -0.9710   -0.6284 C.ar    1  UNL1       -0.0255
     12 C          -1.4997    0.1270   -0.0468 C.ar    1  UNL1        0.0361
     13 C          -0.7155    1.1597    0.5020 C.ar    1  UNL1       -0.0255
     14 C           0.6880    1.0835    0.4775 C.ar    1  UNL1       -0.0490
     15 C          -1.3711    2.3463    1.1621 C.3     1  UNL1       -0.0245
     16 C          -2.7901    2.5481    0.6502 C.3     1  UNL1       -0.0332
     17 C          -3.5573    1.2385    0.7410 C.3     1  UNL1        0.0125
     18 N          -2.8862    0.1921   -0.0188 N.pl3   1  UNL1       -0.3294
     19 C          -3.6919   -0.8318   -0.6723 C.3     1  UNL1        0.0125
     20 C          -3.0134   -2.1909   -0.6082 C.3     1  UNL1       -0.0332
     21 C          -1.6294   -2.1013   -1.2344 C.3     1  UNL1       -0.0245
     22 H           5.5514   -1.6460    1.1635 H       1  UNL1        0.0631
     23 H           6.7182   -0.0987   -0.3694 H       1  UNL1        0.0618
     24 H           5.4137    1.4813   -1.7697 H       1  UNL1        0.0618
     25 H           2.9514    1.5114   -1.6434 H       1  UNL1        0.0624
     26 H           1.0519   -1.8717   -1.1483 H       1  UNL1        0.0627
     27 H           1.2716    1.8856    0.9259 H       1  UNL1        0.0627
     28 H          -0.7916    3.2565    0.9681 H       1  UNL1        0.0314
     29 H          -1.3820    2.1802    2.2463 H       1  UNL1        0.0314
     30 H          -2.7645    2.8897   -0.3928 H       1  UNL1        0.0283
     31 H          -3.2933    3.3258    1.2352 H       1  UNL1        0.0283
     32 H          -4.5713    1.3971    0.3551 H       1  UNL1        0.0464
     33 H          -3.6556    0.9222    1.7867 H       1  UNL1        0.0464
     34 H          -3.8635   -0.5406   -1.7159 H       1  UNL1        0.0464
     35 H          -4.6760   -0.9060   -0.1942 H       1  UNL1        0.0464
     36 H          -3.6154   -2.9410   -1.1326 H       1  UNL1        0.0283
     37 H          -2.9296   -2.5132    0.4380 H       1  UNL1        0.0283
     38 H          -1.1094   -3.0544   -1.0818 H       1  UNL1        0.0314
     39 H          -1.7117   -1.9327   -2.3149 H       1  UNL1        0.0314
@<TRIPOS>BOND
     1     1     2    3
     2     2     3    1
     3     3     4   ar
     4     4     5   ar
     5     5     6   ar
     6     6     7   ar
     7     7     8   ar
     8     8     9    1
     9     9    10   ar
    10    10    11   ar
    11    11    12   ar
    12    12    13   ar
    13    13    14   ar
    14    13    15    1
    15    15    16    1
    16    16    17    1
    17    17    18    1
    18    18    19    1
    19    19    20    1
    20    20    21    1
    21     8     3   ar
    22    14     9   ar
    23    21    11    1
    24    18    12    1
    25     4    22    1
    26     5    23    1
    27     6    24    1
    28     7    25    1
    29    10    26    1
    30    14    27    1
    31    15    28    1
    32    15    29    1
    33    16    30    1
    34    16    31    1
    35    17    32    1
    36    17    33    1
    37    19    34    1
    38    19    35    1
    39    20    36    1
    40    20    37    1
    41    21    38    1
    42    21    39    1
