@<TRIPOS>MOLECULE
*****
 30 33 0 0 0
SMALL
GASTEIGER

@<TRIPOS>ATOM
      1 N           2.0321    1.3870   -3.1525 N.1     1  UNL1       -0.1908
      2 C           2.5257    0.9178   -2.2124 C.1     1  UNL1        0.0998
      3 C           3.1266    0.2836   -1.0750 C.ar    1  UNL1        0.0609
      4 C           4.5244    0.1345   -1.0730 C.ar    1  UNL1       -0.0437
      5 C           5.1725   -0.4676    0.0042 C.ar    1  UNL1       -0.0605
      6 C           4.4299   -0.9246    1.0871 C.ar    1  UNL1       -0.0611
      7 C           3.0403   -0.7797    1.0928 C.ar    1  UNL1       -0.0514
      8 C           2.3634   -0.1787    0.0156 C.ar    1  UNL1        0.0157
      9 C           0.9000   -0.0546    0.1021 C.ar    1  UNL1        0.0487
     10 C           0.1033    0.2954    1.1820 C.ar    1  UNL1       -0.0286
     11 C          -1.2593    0.2460    0.7825 C.ar    1  UNL1        0.0010
     12 C          -2.4827    0.4965    1.4289 C.ar    1  UNL1       -0.0418
     13 C          -3.6930    0.3525    0.7367 C.ar    1  UNL1        0.0208
     14 C          -5.0708    0.5099    1.0397 C.ar    1  UNL1       -0.0161
     15 C          -5.7597    0.2052   -0.1127 C.ar    1  UNL1        0.0931
     16 O          -4.9007   -0.1314   -1.1111 O.2     1  UNL1       -0.4629
     17 C          -3.6456   -0.0407   -0.5942 C.ar    1  UNL1        0.1368
     18 C          -2.4595   -0.2954   -1.2646 C.ar    1  UNL1        0.0051
     19 C          -1.2702   -0.1463   -0.5538 C.ar    1  UNL1        0.0505
     20 N           0.0366   -0.3251   -0.9404 N.ar    1  UNL1       -0.3540
     21 H           5.1170    0.4918   -1.9143 H       1  UNL1        0.0631
     22 H           6.2544   -0.5785   -0.0012 H       1  UNL1        0.0618
     23 H           4.9289   -1.3959    1.9307 H       1  UNL1        0.0618
     24 H           2.4829   -1.1537    1.9503 H       1  UNL1        0.0624
     25 H           0.4649    0.5690    2.1651 H       1  UNL1        0.0645
     26 H          -2.4883    0.8042    2.4708 H       1  UNL1        0.0631
     27 H          -5.5073    0.8092    1.9815 H       1  UNL1        0.0655
     28 H          -6.8084    0.1809   -0.3742 H       1  UNL1        0.1029
     29 H          -2.4690   -0.5973   -2.3063 H       1  UNL1        0.0675
     30 H           0.3116   -0.6140   -1.8694 H       1  UNL1        0.1659
@<TRIPOS>BOND
     1     1     2    3
     2     2     3    1
     3     3     4   ar
     4     4     5   ar
     5     5     6   ar
     6     6     7   ar
     7     7     8   ar
     8     8     9    1
     9     9    10   ar
    10    10    11   ar
    11    11    12   ar
    12    12    13   ar
    13    13    14   ar
    14    14    15   ar
    15    15    16   ar
    16    16    17   ar
    17    17    18   ar
    18    18    19   ar
    19    19    20   ar
    20     8     3   ar
    21    20     9   ar
    22    19    11   ar
    23    17    13   ar
    24     4    21    1
    25     5    22    1
    26     6    23    1
    27     7    24    1
    28    10    25    1
    29    12    26    1
    30    14    27    1
    31    15    28    1
    32    18    29    1
    33    20    30    1
