@<TRIPOS>MOLECULE
*****
 29 32 0 0 0
SMALL
GASTEIGER

@<TRIPOS>ATOM
      1 N          -2.4075    0.3968   -2.8598 N.1     1  UNL1       -0.1908
      2 C          -2.4927    0.9295   -1.8313 C.1     1  UNL1        0.0999
      3 C          -2.6629    1.6121   -0.5777 C.ar    1  UNL1        0.0624
      4 C          -3.7193    2.5352   -0.4800 C.ar    1  UNL1       -0.0437
      5 C          -3.9701    3.2064    0.7160 C.ar    1  UNL1       -0.0605
      6 C          -3.1706    2.9594    1.8263 C.ar    1  UNL1       -0.0610
      7 C          -2.1183    2.0445    1.7396 C.ar    1  UNL1       -0.0498
      8 C          -1.8426    1.3616    0.5399 C.ar    1  UNL1        0.0346
      9 C          -0.7233    0.4241    0.5176 C.ar    1  UNL1        0.1375
     10 C          -0.2012   -0.4701    1.4340 C.ar    1  UNL1       -0.0079
     11 C           0.9240   -1.0785    0.8192 C.ar    1  UNL1        0.0243
     12 C           1.8711   -2.0471    1.1747 C.ar    1  UNL1       -0.0080
     13 C           2.8553   -2.3799    0.2498 C.ar    1  UNL1        0.1356
     14 O           3.8471   -3.2942    0.4290 O.2     1  UNL1       -0.4629
     15 C           4.5799   -3.3083   -0.7159 C.ar    1  UNL1        0.0931
     16 C           4.0724   -2.4128   -1.6301 C.ar    1  UNL1       -0.0160
     17 C           2.9505   -1.8022   -1.0123 C.ar    1  UNL1        0.0236
     18 C           2.0037   -0.8328   -1.3664 C.ar    1  UNL1       -0.0080
     19 C           1.0211   -0.4997   -0.4405 C.ar    1  UNL1        0.1365
     20 O           0.0339    0.4172   -0.6178 O.2     1  UNL1       -0.4548
     21 H          -4.3577    2.7308   -1.3409 H       1  UNL1        0.0631
     22 H          -4.7894    3.9187    0.7805 H       1  UNL1        0.0618
     23 H          -3.3611    3.4811    2.7616 H       1  UNL1        0.0618
     24 H          -1.5003    1.8803    2.6209 H       1  UNL1        0.0625
     25 H          -0.5897   -0.6687    2.4227 H       1  UNL1        0.0661
     26 H           1.8457   -2.5332    2.1443 H       1  UNL1        0.0661
     27 H           5.4139   -3.9962   -0.7257 H       1  UNL1        0.1029
     28 H           4.4623   -2.2240   -2.6201 H       1  UNL1        0.0655
     29 H           2.0258   -0.3499   -2.3380 H       1  UNL1        0.0661
@<TRIPOS>BOND
     1     1     2    3
     2     2     3    1
     3     3     4   ar
     4     4     5   ar
     5     5     6   ar
     6     6     7   ar
     7     7     8   ar
     8     8     9    1
     9     9    10   ar
    10    10    11   ar
    11    11    12   ar
    12    12    13   ar
    13    13    14   ar
    14    14    15   ar
    15    15    16   ar
    16    16    17   ar
    17    17    18   ar
    18    18    19   ar
    19    19    20   ar
    20     8     3   ar
    21    20     9   ar
    22    19    11   ar
    23    17    13   ar
    24     4    21    1
    25     5    22    1
    26     6    23    1
    27     7    24    1
    28    10    25    1
    29    12    26    1
    30    15    27    1
    31    16    28    1
    32    18    29    1
