@<TRIPOS>MOLECULE
*****
 27 29 0 0 0
SMALL
GASTEIGER

@<TRIPOS>ATOM
      1 N           1.4618    2.0103   -3.0137 N.1     1  UNL1       -0.1908
      2 C           1.6352    0.9581   -2.5539 C.1     1  UNL1        0.0998
      3 C           1.8871   -0.3542   -2.0273 C.ar    1  UNL1        0.0609
      4 C           2.9193   -1.1083   -2.6109 C.ar    1  UNL1       -0.0437
      5 C           3.2253   -2.3826   -2.1340 C.ar    1  UNL1       -0.0605
      6 C           2.5023   -2.9148   -1.0715 C.ar    1  UNL1       -0.0611
      7 C           1.4750   -2.1727   -0.4842 C.ar    1  UNL1       -0.0514
      8 C           1.1535   -0.8850   -0.9495 C.ar    1  UNL1        0.0157
      9 C           0.0646   -0.1561   -0.2939 C.ar    1  UNL1        0.0487
     10 C          -1.0582    0.4619   -0.8157 C.ar    1  UNL1       -0.0286
     11 C          -1.8041    1.0232    0.2571 C.ar    1  UNL1        0.0003
     12 C          -3.0056    1.7523    0.3393 C.ar    1  UNL1       -0.0526
     13 C          -3.4707    2.1654    1.5932 C.ar    1  UNL1       -0.0611
     14 C          -2.7572    1.8620    2.7511 C.ar    1  UNL1       -0.0598
     15 C          -1.5614    1.1397    2.6929 C.ar    1  UNL1       -0.0378
     16 C          -1.1123    0.7343    1.4307 C.ar    1  UNL1        0.0469
     17 N           0.0107    0.0264    1.0712 N.ar    1  UNL1       -0.3541
     18 H           3.4925   -0.7018   -3.4432 H       1  UNL1        0.0631
     19 H           4.0243   -2.9596   -2.5939 H       1  UNL1        0.0618
     20 H           2.7315   -3.9118   -0.7023 H       1  UNL1        0.0618
     21 H           0.9095   -2.6201    0.3314 H       1  UNL1        0.0624
     22 H          -1.3272    0.5069   -1.8636 H       1  UNL1        0.0645
     23 H          -3.5648    1.9953   -0.5592 H       1  UNL1        0.0624
     24 H          -4.3970    2.7305    1.6613 H       1  UNL1        0.0618
     25 H          -3.1348    2.1941    3.7156 H       1  UNL1        0.0618
     26 H          -1.0074    0.9078    3.5964 H       1  UNL1        0.0638
     27 H           0.7081   -0.3009    1.7241 H       1  UNL1        0.1659
@<TRIPOS>BOND
     1     1     2    3
     2     2     3    1
     3     3     4   ar
     4     4     5   ar
     5     5     6   ar
     6     6     7   ar
     7     7     8   ar
     8     8     9    1
     9     9    10   ar
    10    10    11   ar
    11    11    12   ar
    12    12    13   ar
    13    13    14   ar
    14    14    15   ar
    15    15    16   ar
    16    16    17   ar
    17     8     3   ar
    18    17     9   ar
    19    16    11   ar
    20     4    18    1
    21     5    19    1
    22     6    20    1
    23     7    21    1
    24    10    22    1
    25    12    23    1
    26    13    24    1
    27    14    25    1
    28    15    26    1
    29    17    27    1
