@<TRIPOS>MOLECULE
*****
 26 28 0 0 0
SMALL
GASTEIGER

@<TRIPOS>ATOM
      1 N           0.6534   -2.5241    2.7217 N.1     1  UNL1       -0.1908
      2 C           1.2567   -1.6126    2.3306 C.1     1  UNL1        0.0998
      3 C           2.0379   -0.5050    1.8562 C.ar    1  UNL1        0.0600
      4 C           3.3207   -0.3178    2.3964 C.ar    1  UNL1       -0.0437
      5 C           4.1189    0.7454    1.9738 C.ar    1  UNL1       -0.0605
      6 C           3.6430    1.6283    1.0091 C.ar    1  UNL1       -0.0611
      7 C           2.3687    1.4500    0.4665 C.ar    1  UNL1       -0.0523
      8 C           1.5488    0.3859    0.8826 C.ar    1  UNL1        0.0061
      9 C           0.2212    0.2303    0.2777 C.ar    1  UNL1        0.0217
     10 C          -0.2499   -0.7846   -0.5282 C.ar    1  UNL1       -0.0392
     11 C          -1.6162   -0.6015   -0.9285 C.ar    1  UNL1       -0.0102
     12 C          -2.4530   -1.4046   -1.7401 C.ar    1  UNL1       -0.0535
     13 C          -3.7719   -1.0185   -1.9970 C.ar    1  UNL1       -0.0611
     14 C          -4.2751    0.1572   -1.4578 C.ar    1  UNL1       -0.0607
     15 C          -3.4734    0.9692   -0.6523 C.ar    1  UNL1       -0.0474
     16 C          -2.1452    0.5761   -0.3962 C.ar    1  UNL1        0.0199
     17 S          -0.9825    1.4090    0.5617 S.2     1  UNL1       -0.0882
     18 H           3.7040   -1.0013    3.1528 H       1  UNL1        0.0631
     19 H           5.1109    0.8844    2.3975 H       1  UNL1        0.0618
     20 H           4.2629    2.4578    0.6763 H       1  UNL1        0.0618
     21 H           2.0175    2.1486   -0.2916 H       1  UNL1        0.0624
     22 H           0.3519   -1.6344   -0.8280 H       1  UNL1        0.0635
     23 H          -2.0710   -2.3296   -2.1651 H       1  UNL1        0.0624
     24 H          -4.4051   -1.6454   -2.6202 H       1  UNL1        0.0618
     25 H          -5.3028    0.4497   -1.6604 H       1  UNL1        0.0618
     26 H          -3.8704    1.8873   -0.2289 H       1  UNL1        0.0629
@<TRIPOS>BOND
     1     1     2    3
     2     2     3    1
     3     3     4   ar
     4     4     5   ar
     5     5     6   ar
     6     6     7   ar
     7     7     8   ar
     8     8     9    1
     9     9    10   ar
    10    10    11   ar
    11    11    12   ar
    12    12    13   ar
    13    13    14   ar
    14    14    15   ar
    15    15    16   ar
    16    16    17   ar
    17     8     3   ar
    18    17     9   ar
    19    16    11   ar
    20     4    18    1
    21     5    19    1
    22     6    20    1
    23     7    21    1
    24    10    22    1
    25    12    23    1
    26    13    24    1
    27    14    25    1
    28    15    26    1
