@<TRIPOS>MOLECULE
*****
 28 31 0 0 0
SMALL
GASTEIGER

@<TRIPOS>ATOM
      1 N          -2.1554   -3.1848   -0.6893 N.1     1  UNL1       -0.1908
      2 C          -2.4671   -2.0904   -0.9172 C.1     1  UNL1        0.0998
      3 C          -2.8604   -0.7311   -1.1508 C.ar    1  UNL1        0.0609
      4 C          -4.1729   -0.4955   -1.5943 C.ar    1  UNL1       -0.0437
      5 C          -4.6121    0.8021   -1.8521 C.ar    1  UNL1       -0.0605
      6 C          -3.7438    1.8730   -1.6706 C.ar    1  UNL1       -0.0611
      7 C          -2.4374    1.6472   -1.2301 C.ar    1  UNL1       -0.0514
      8 C          -1.9742    0.3472   -0.9583 C.ar    1  UNL1        0.0157
      9 C          -0.5847    0.1906   -0.5036 C.ar    1  UNL1        0.0513
     10 C           0.5765    0.7948   -0.9777 C.ar    1  UNL1       -0.0087
     11 C           1.6577    0.3553   -0.1848 C.ar    1  UNL1        0.1089
     12 N           2.9851    0.6457   -0.2312 N.ar    1  UNL1       -0.2387
     13 C           3.7376    0.0258    0.7184 C.ar    1  UNL1        0.1293
     14 C           5.1197    0.0637    0.9950 C.ar    1  UNL1        0.0039
     15 C           5.3100   -0.7662    2.0794 C.ar    1  UNL1        0.0966
     16 O           4.1317   -1.3137    2.4908 O.2     1  UNL1       -0.4439
     17 C           3.1678   -0.8321    1.6588 C.ar    1  UNL1        0.2478
     18 N           1.8547   -1.1330    1.7281 N.ar    1  UNL1       -0.1914
     19 C           1.1403   -0.5085    0.7710 C.ar    1  UNL1        0.1609
     20 N          -0.2065   -0.6029    0.5672 N.ar    1  UNL1       -0.3377
     21 H          -4.8605   -1.3267   -1.7454 H       1  UNL1        0.0631
     22 H          -5.6289    0.9766   -2.1963 H       1  UNL1        0.0618
     23 H          -4.0805    2.8877   -1.8711 H       1  UNL1        0.0618
     24 H          -1.7813    2.5053   -1.0904 H       1  UNL1        0.0624
     25 H           0.6414    1.4812   -1.8112 H       1  UNL1        0.0661
     26 H           5.8779    0.6243    0.4698 H       1  UNL1        0.0671
     27 H           6.1795   -1.0606    2.6513 H       1  UNL1        0.1031
     28 H          -0.8141   -1.1750    1.1368 H       1  UNL1        0.1674
@<TRIPOS>BOND
     1     1     2    3
     2     2     3    1
     3     3     4   ar
     4     4     5   ar
     5     5     6   ar
     6     6     7   ar
     7     7     8   ar
     8     8     9    1
     9     9    10   ar
    10    10    11   ar
    11    11    12   ar
    12    12    13   ar
    13    13    14   ar
    14    14    15   ar
    15    15    16   ar
    16    16    17   ar
    17    17    18   ar
    18    18    19   ar
    19    19    20   ar
    20     8     3   ar
    21    20     9   ar
    22    19    11   ar
    23    17    13   ar
    24     4    21    1
    25     5    22    1
    26     6    23    1
    27     7    24    1
    28    10    25    1
    29    14    26    1
    30    15    27    1
    31    20    28    1
