@<TRIPOS>MOLECULE
*****
 40 45 0 0 0
SMALL
GASTEIGER

@<TRIPOS>ATOM
      1 SI         -5.3738    0.2351    2.3051 Si      1  UNL1        0.0000
      2 C          -6.6629   -0.9664    1.6589 C.2     1  UNL1        0.0000
      3 C          -6.2276   -1.6930    0.6137 C.2     1  UNL1        0.0000
      4 C          -4.8445   -1.3890    0.2081 C.ar    1  UNL1        0.0000
      5 C          -4.1812   -2.0120   -0.8447 C.ar    1  UNL1        0.0000
      6 C          -2.8524   -1.6191   -1.1218 C.ar    1  UNL1        0.0000
      7 S          -1.8519   -2.2663   -2.3849 S.2     1  UNL1        0.0000
      8 C          -0.5569   -1.2270   -1.9183 C.ar    1  UNL1        0.0000
      9 C           0.7804   -0.9278   -2.3041 C.ar    1  UNL1        0.0000
     10 C           1.2214    0.0482   -1.4282 C.ar    1  UNL1        0.0000
     11 N           0.1979    0.3544   -0.5628 N.ar    1  UNL1        0.0000
     12 C          -0.8844   -0.4374   -0.8608 C.ar    1  UNL1        0.0000
     13 C          -2.2083   -0.6301   -0.3642 C.ar    1  UNL1        0.0000
     14 C          -2.8947   -0.0034    0.7044 C.ar    1  UNL1        0.0000
     15 C          -4.2056   -0.3954    0.9728 C.ar    1  UNL1        0.0000
     16 C           2.5113    0.7413   -1.3688 C.ar    1  UNL1        0.0000
     17 C           2.8355    1.5974   -2.4326 C.ar    1  UNL1        0.0000
     18 C           4.0246    2.3186   -2.4248 C.ar    1  UNL1        0.0000
     19 C           4.9039    2.1914   -1.3526 C.ar    1  UNL1        0.0000
     20 C           4.6148    1.3349   -0.2791 C.ar    1  UNL1        0.0000
     21 C           5.5198    1.2140    0.7890 C.ar    1  UNL1        0.0000
     22 C           5.2604    0.3577    1.8580 C.ar    1  UNL1        0.0000
     23 C           4.0941   -0.3950    1.8708 C.ar    1  UNL1        0.0000
     24 C           3.1833   -0.2843    0.8179 C.ar    1  UNL1        0.0000
     25 C           3.4101    0.5865   -0.2757 C.ar    1  UNL1        0.0000
     26 H          -4.9185   -0.1078    3.6756 H       1  UNL1        0.0000
     27 H          -5.7676    1.6512    2.0993 H       1  UNL1        0.0000
     28 H          -7.6388   -1.0281    2.1154 H       1  UNL1        0.0000
     29 H          -6.8164   -2.4397    0.0975 H       1  UNL1        0.0000
     30 H          -4.6652   -2.7792   -1.4407 H       1  UNL1        0.0000
     31 H           1.3450   -1.3747   -3.1112 H       1  UNL1        0.0000
     32 H           0.2096    1.0407    0.1810 H       1  UNL1        0.0000
     33 H          -2.4048    0.7639    1.2966 H       1  UNL1        0.0000
     34 H           2.1502    1.7124   -3.2699 H       1  UNL1        0.0000
     35 H           4.2645    2.9820   -3.2514 H       1  UNL1        0.0000
     36 H           5.8279    2.7661   -1.3643 H       1  UNL1        0.0000
     37 H           6.4445    1.7875    0.7933 H       1  UNL1        0.0000
     38 H           5.9738    0.2734    2.6734 H       1  UNL1        0.0000
     39 H           3.8918   -1.0753    2.6939 H       1  UNL1        0.0000
     40 H           2.2907   -0.9055    0.8510 H       1  UNL1        0.0000
@<TRIPOS>BOND
     1     1     2    1
     2     2     3    2
     3     3     4    1
     4     4     5   ar
     5     5     6   ar
     6     6     7   ar
     7     7     8   ar
     8     8     9   ar
     9     9    10   ar
    10    10    11   ar
    11    11    12   ar
    12    12    13   ar
    13    13    14   ar
    14    14    15   ar
    15    10    16    1
    16    16    17   ar
    17    17    18   ar
    18    18    19   ar
    19    19    20   ar
    20    20    21   ar
    21    21    22   ar
    22    22    23   ar
    23    23    24   ar
    24    24    25   ar
    25    15     1    1
    26    25    16   ar
    27    15     4   ar
    28    25    20   ar
    29    13     6   ar
    30    12     8   ar
    31     1    26    1
    32     1    27    1
    33     2    28    1
    34     3    29    1
    35     5    30    1
    36     9    31    1
    37    11    32    1
    38    14    33    1
    39    17    34    1
    40    18    35    1
    41    19    36    1
    42    21    37    1
    43    22    38    1
    44    23    39    1
    45    24    40    1
