@<TRIPOS>MOLECULE
*****
 25 27 0 0 0
SMALL
GASTEIGER

@<TRIPOS>ATOM
      1 N          -0.2900    2.1725    2.8449 N.1     1  UNL1       -0.1909
      2 C          -0.9221    1.6401    2.0294 C.1     1  UNL1        0.0998
      3 C          -1.7273    1.0085    1.0208 C.ar    1  UNL1        0.0595
      4 C          -3.1166    1.2112    1.0599 C.ar    1  UNL1       -0.0438
      5 C          -3.9462    0.6138    0.1118 C.ar    1  UNL1       -0.0605
      6 C          -3.3950   -0.1901   -0.8806 C.ar    1  UNL1       -0.0611
      7 C          -2.0145   -0.3967   -0.9265 C.ar    1  UNL1       -0.0528
      8 C          -1.1552    0.1974    0.0180 C.ar    1  UNL1       -0.0005
      9 C           0.2936   -0.0550   -0.0745 C.ar    1  UNL1       -0.0145
     10 C           1.1816    0.9755   -0.4409 C.ar    1  UNL1       -0.0519
     11 C           2.5659    0.7728   -0.5369 C.ar    1  UNL1       -0.0342
     12 C           3.0211   -0.5140   -0.2571 C.ar    1  UNL1        0.0858
     13 N           4.2604   -1.0891   -0.2382 N.ar    1  UNL1       -0.2571
     14 N           4.2047   -2.3911    0.0871 N.ar    1  UNL1       -0.0673
     15 N           2.9296   -2.6932    0.3002 N.ar    1  UNL1       -0.1297
     16 C           2.1851   -1.5619    0.0983 C.ar    1  UNL1        0.1130
     17 C           0.8042   -1.3410    0.1941 C.ar    1  UNL1       -0.0247
     18 H          -3.5596    1.8356    1.8345 H       1  UNL1        0.0631
     19 H          -5.0212    0.7742    0.1489 H       1  UNL1        0.0618
     20 H          -4.0383   -0.6588   -1.6220 H       1  UNL1        0.0618
     21 H          -1.6045   -1.0270   -1.7150 H       1  UNL1        0.0624
     22 H           0.7926    1.9705   -0.6587 H       1  UNL1        0.0624
     23 H           3.2366    1.5796   -0.8121 H       1  UNL1        0.0639
     24 H           5.1626   -0.6728   -0.4313 H       1  UNL1        0.1907
     25 H           0.1526   -2.1609    0.4795 H       1  UNL1        0.0646
@<TRIPOS>BOND
     1     1     2    3
     2     2     3    1
     3     3     4   ar
     4     4     5   ar
     5     5     6   ar
     6     6     7   ar
     7     7     8   ar
     8     8     9    1
     9     9    10   ar
    10    10    11   ar
    11    11    12   ar
    12    12    13   ar
    13    13    14   ar
    14    14    15   ar
    15    15    16   ar
    16    16    17   ar
    17     8     3   ar
    18    17     9   ar
    19    16    12   ar
    20     4    18    1
    21     5    19    1
    22     6    20    1
    23     7    21    1
    24    10    22    1
    25    11    23    1
    26    13    24    1
    27    17    25    1
