@<TRIPOS>MOLECULE
*****
 35 38 0 0 0
SMALL
GASTEIGER

@<TRIPOS>ATOM
      1 N          -3.1007   -2.3641   -1.4574 N.1     1  UNL1       -0.1909
      2 C          -3.4026   -1.5346   -0.7034 C.1     1  UNL1        0.0998
      3 C          -3.7885   -0.5337    0.2523 C.ar    1  UNL1        0.0595
      4 C          -5.0738   -0.6157    0.8129 C.ar    1  UNL1       -0.0438
      5 C          -5.5035    0.3324    1.7403 C.ar    1  UNL1       -0.0605
      6 C          -4.6538    1.3683    2.1138 C.ar    1  UNL1       -0.0611
      7 C          -3.3743    1.4569    1.5606 C.ar    1  UNL1       -0.0528
      8 C          -2.9155    0.5113    0.6229 C.ar    1  UNL1       -0.0005
      9 C          -1.5572    0.6541    0.0686 C.ar    1  UNL1       -0.0147
     10 C          -1.2309    1.7554   -0.7408 C.ar    1  UNL1       -0.0532
     11 C           0.0591    1.9113   -1.2513 C.ar    1  UNL1       -0.0484
     12 C           1.0367    0.9565   -0.9628 C.ar    1  UNL1        0.0456
     13 C           2.4151    1.1131   -1.4911 C.ar    1  UNL1        0.1971
     14 O           2.7182    2.0932   -2.1643 O.2     1  UNL1       -0.2865
     15 C           3.4160    0.0588   -1.1914 C.ar    1  UNL1        0.0456
     16 C           4.7165    0.1569   -1.6970 C.ar    1  UNL1       -0.0489
     17 C           5.6471   -0.8388   -1.4034 C.ar    1  UNL1       -0.0610
     18 C           5.2797   -1.9211   -0.6031 C.ar    1  UNL1       -0.0598
     19 C           3.9792   -2.0160   -0.0983 C.ar    1  UNL1       -0.0377
     20 C           3.0283   -1.0377   -0.4048 C.ar    1  UNL1        0.0506
     21 N           1.7378   -1.0940    0.1487 N.ar    1  UNL1       -0.3539
     22 C           0.7340   -0.1671   -0.1808 C.ar    1  UNL1        0.0511
     23 C          -0.5552   -0.2933    0.3513 C.ar    1  UNL1       -0.0299
     24 H          -5.7488   -1.4210    0.5261 H       1  UNL1        0.0631
     25 H          -6.5003    0.2632    2.1698 H       1  UNL1        0.0618
     26 H          -4.9843    2.1100    2.8375 H       1  UNL1        0.0618
     27 H          -2.7245    2.2740    1.8728 H       1  UNL1        0.0624
     28 H          -1.9839    2.5048   -0.9796 H       1  UNL1        0.0624
     29 H           0.3001    2.7729   -1.8702 H       1  UNL1        0.0625
     30 H           5.0023    1.0061   -2.3135 H       1  UNL1        0.0625
     31 H           6.6597   -0.7667   -1.7929 H       1  UNL1        0.0618
     32 H           6.0104   -2.6909   -0.3658 H       1  UNL1        0.0618
     33 H           3.7188   -2.8584    0.5368 H       1  UNL1        0.0638
     34 H           1.4220   -2.0082    0.4503 H       1  UNL1        0.1659
     35 H          -0.7831   -1.1381    0.9982 H       1  UNL1        0.0644
@<TRIPOS>BOND
     1     1     2    3
     2     2     3    1
     3     3     4   ar
     4     4     5   ar
     5     5     6   ar
     6     6     7   ar
     7     7     8   ar
     8     8     9    1
     9     9    10   ar
    10    10    11   ar
    11    11    12   ar
    12    12    13   ar
    13    13    14    2
    14    13    15   ar
    15    15    16   ar
    16    16    17   ar
    17    17    18   ar
    18    18    19   ar
    19    19    20   ar
    20    20    21   ar
    21    21    22   ar
    22    22    23   ar
    23     8     3   ar
    24    23     9   ar
    25    22    12   ar
    26    20    15   ar
    27     4    24    1
    28     5    25    1
    29     6    26    1
    30     7    27    1
    31    10    28    1
    32    11    29    1
    33    16    30    1
    34    17    31    1
    35    18    32    1
    36    19    33    1
    37    21    34    1
    38    23    35    1
