@<TRIPOS>MOLECULE
*****
 39 42 0 0 0
SMALL
GASTEIGER

@<TRIPOS>ATOM
      1 N          -3.8665    3.0202   -0.8149 N.1     1  UNL1       -0.1909
      2 C          -4.0897    1.9255   -0.4989 C.1     1  UNL1        0.0998
      3 C          -4.4112    0.5816   -0.1045 C.ar    1  UNL1        0.0595
      4 C          -5.7495    0.1659   -0.2017 C.ar    1  UNL1       -0.0438
      5 C          -6.1167   -1.1304    0.1575 C.ar    1  UNL1       -0.0605
      6 C          -5.1509   -2.0206    0.6153 C.ar    1  UNL1       -0.0611
      7 C          -3.8181   -1.6151    0.7146 C.ar    1  UNL1       -0.0528
      8 C          -3.4228   -0.3108    0.3598 C.ar    1  UNL1       -0.0005
      9 C          -2.0055    0.0637    0.4834 C.ar    1  UNL1       -0.0163
     10 C          -1.5749    0.9544    1.4666 C.ar    1  UNL1       -0.0522
     11 C          -0.2236    1.2984    1.5664 C.ar    1  UNL1       -0.0397
     12 C           0.7488    0.7699    0.6949 C.ar    1  UNL1        0.0346
     13 C           0.3293   -0.1503   -0.2735 C.ar    1  UNL1       -0.0253
     14 C          -1.0413   -0.4796   -0.3771 C.ar    1  UNL1       -0.0490
     15 C           1.2805   -0.7755   -1.2601 C.3     1  UNL1       -0.0219
     16 C           2.4828   -1.4187   -0.5820 C.3     1  UNL1       -0.0219
     17 C           3.5732   -0.4248   -0.2809 C.ar    1  UNL1       -0.0259
     18 C           4.8863   -0.7416   -0.6896 C.ar    1  UNL1       -0.0568
     19 C           5.9514    0.1181   -0.4329 C.ar    1  UNL1       -0.0614
     20 C           5.7218    1.3059    0.2437 C.ar    1  UNL1       -0.0600
     21 C           4.4286    1.6218    0.6638 C.ar    1  UNL1       -0.0403
     22 C           3.3337    0.7667    0.4184 C.ar    1  UNL1        0.0345
     23 N           2.0779    1.1813    0.8977 N.pl3   1  UNL1       -0.3141
     24 H          -6.5136    0.8536   -0.5614 H       1  UNL1        0.0631
     25 H          -7.1548   -1.4449    0.0794 H       1  UNL1        0.0618
     26 H          -5.4322   -3.0325    0.8977 H       1  UNL1        0.0618
     27 H          -3.0780   -2.3258    1.0810 H       1  UNL1        0.0624
     28 H          -2.2830    1.3918    2.1671 H       1  UNL1        0.0624
     29 H           0.0682    1.9968    2.3479 H       1  UNL1        0.0636
     30 H          -1.3631   -1.1749   -1.1521 H       1  UNL1        0.0627
     31 H           0.7551   -1.5647   -1.8134 H       1  UNL1        0.0317
     32 H           1.5799   -0.0252   -2.0028 H       1  UNL1        0.0317
     33 H           2.2025   -1.9425    0.3407 H       1  UNL1        0.0317
     34 H           2.8745   -2.1840   -1.2647 H       1  UNL1        0.0317
     35 H           5.0854   -1.6718   -1.2182 H       1  UNL1        0.0621
     36 H           6.9542   -0.1416   -0.7605 H       1  UNL1        0.0618
     37 H           6.5429    1.9870    0.4487 H       1  UNL1        0.0618
     38 H           4.2793    2.5602    1.1930 H       1  UNL1        0.0636
     39 H           2.1389    2.0123    1.4755 H       1  UNL1        0.1522
@<TRIPOS>BOND
     1     1     2    3
     2     2     3    1
     3     3     4   ar
     4     4     5   ar
     5     5     6   ar
     6     6     7   ar
     7     7     8   ar
     8     8     9    1
     9     9    10   ar
    10    10    11   ar
    11    11    12   ar
    12    12    13   ar
    13    13    14   ar
    14    13    15    1
    15    15    16    1
    16    16    17    1
    17    17    18   ar
    18    18    19   ar
    19    19    20   ar
    20    20    21   ar
    21    21    22   ar
    22    22    23    1
    23     8     3   ar
    24    14     9   ar
    25    22    17   ar
    26    23    12    1
    27     4    24    1
    28     5    25    1
    29     6    26    1
    30     7    27    1
    31    10    28    1
    32    11    29    1
    33    14    30    1
    34    15    31    1
    35    15    32    1
    36    16    33    1
    37    16    34    1
    38    18    35    1
    39    19    36    1
    40    20    37    1
    41    21    38    1
    42    23    39    1
