@<TRIPOS>MOLECULE
*****
 34 37 0 0 0
SMALL
GASTEIGER

@<TRIPOS>ATOM
      1 N           2.2004   -1.4518    3.7533 N.1     1  UNL1       -0.1909
      2 C           2.7455   -1.2984    2.7399 C.1     1  UNL1        0.0998
      3 C           3.4549   -1.1250    1.5025 C.ar    1  UNL1        0.0595
      4 C           4.7218   -1.7178    1.3760 C.ar    1  UNL1       -0.0438
      5 C           5.4488   -1.5892    0.1930 C.ar    1  UNL1       -0.0605
      6 C           4.9162   -0.8689   -0.8714 C.ar    1  UNL1       -0.0611
      7 C           3.6569   -0.2766   -0.7537 C.ar    1  UNL1       -0.0528
      8 C           2.9050   -0.3913    0.4312 C.ar    1  UNL1       -0.0005
      9 C           1.5844    0.2523    0.5024 C.ar    1  UNL1       -0.0148
     10 C           1.3920    1.4206    1.2478 C.ar    1  UNL1       -0.0528
     11 C           0.1344    2.0253    1.3063 C.ar    1  UNL1       -0.0456
     12 C          -0.9561    1.4802    0.6149 C.ar    1  UNL1        0.0339
     13 C          -0.7812    0.3181   -0.1528 C.ar    1  UNL1        0.0458
     14 C           0.4870   -0.2880   -0.1887 C.ar    1  UNL1       -0.0317
     15 N          -1.8444   -0.2932   -0.8393 N.pl3   1  UNL1       -0.3127
     16 C          -3.1630    0.1817   -0.9442 C.ar    1  UNL1        0.0453
     17 C          -4.0893   -0.5507   -1.7046 C.ar    1  UNL1       -0.0395
     18 C          -5.4185   -0.1374   -1.8132 C.ar    1  UNL1       -0.0599
     19 C          -5.8435    1.0101   -1.1527 C.ar    1  UNL1       -0.0606
     20 C          -4.9396    1.7397   -0.3805 C.ar    1  UNL1       -0.0462
     21 C          -3.6018    1.3312   -0.2656 C.ar    1  UNL1        0.0339
     22 S          -2.5227    2.3235    0.7530 S.3     1  UNL1       -0.0857
     23 H           5.1479   -2.2856    2.2020 H       1  UNL1        0.0631
     24 H           6.4295   -2.0505    0.1027 H       1  UNL1        0.0618
     25 H           5.4806   -0.7644   -1.7952 H       1  UNL1        0.0618
     26 H           3.2607    0.2885   -1.5966 H       1  UNL1        0.0624
     27 H           2.2188    1.8712    1.7936 H       1  UNL1        0.0624
     28 H           0.0112    2.9276    1.9017 H       1  UNL1        0.0629
     29 H           0.6237   -1.2029   -0.7618 H       1  UNL1        0.0642
     30 H          -1.5932   -1.0362   -1.4768 H       1  UNL1        0.1522
     31 H          -3.7807   -1.4567   -2.2196 H       1  UNL1        0.0636
     32 H          -6.1209   -0.7147   -2.4090 H       1  UNL1        0.0618
     33 H          -6.8775    1.3356   -1.2316 H       1  UNL1        0.0618
     34 H          -5.2873    2.6309    0.1373 H       1  UNL1        0.0629
@<TRIPOS>BOND
     1     1     2    3
     2     2     3    1
     3     3     4   ar
     4     4     5   ar
     5     5     6   ar
     6     6     7   ar
     7     7     8   ar
     8     8     9    1
     9     9    10   ar
    10    10    11   ar
    11    11    12   ar
    12    12    13   ar
    13    13    14   ar
    14    13    15    1
    15    15    16    1
    16    16    17   ar
    17    17    18   ar
    18    18    19   ar
    19    19    20   ar
    20    20    21   ar
    21    21    22    1
    22     8     3   ar
    23    14     9   ar
    24    21    16   ar
    25    22    12    1
    26     4    23    1
    27     5    24    1
    28     6    25    1
    29     7    26    1
    30    10    27    1
    31    11    28    1
    32    14    29    1
    33    15    30    1
    34    17    31    1
    35    18    32    1
    36    19    33    1
    37    20    34    1
