@<TRIPOS>MOLECULE
*****
 34 37 0 0 0
SMALL
GASTEIGER

@<TRIPOS>ATOM
      1 N          -1.6171    2.7760    2.9546 N.1     1  UNL1       -0.1909
      2 C          -2.1584    1.7712    2.7418 C.1     1  UNL1        0.0998
      3 C          -2.8626    0.5444    2.4895 C.ar    1  UNL1        0.0595
      4 C          -3.9944    0.2597    3.2716 C.ar    1  UNL1       -0.0438
      5 C          -4.7099   -0.9212    3.0788 C.ar    1  UNL1       -0.0605
      6 C          -4.3002   -1.8261    2.1052 C.ar    1  UNL1       -0.0611
      7 C          -3.1761   -1.5504    1.3235 C.ar    1  UNL1       -0.0528
      8 C          -2.4378   -0.3634    1.4965 C.ar    1  UNL1       -0.0005
      9 C          -1.2604   -0.1243    0.6451 C.ar    1  UNL1       -0.0146
     10 C          -1.2459    0.8967   -0.3048 C.ar    1  UNL1       -0.0533
     11 C          -0.1183    1.1019   -1.1041 C.ar    1  UNL1       -0.0514
     12 C           1.0348    0.2875   -0.9880 C.ar    1  UNL1        0.0081
     13 C           1.0112   -0.7511   -0.0296 C.ar    1  UNL1        0.0721
     14 C          -0.1194   -0.9329    0.7569 C.ar    1  UNL1       -0.0280
     15 N           2.0366   -1.5885    0.1672 N.ar    1  UNL1       -0.2543
     16 C           3.1432   -1.4209   -0.5867 C.ar    1  UNL1        0.0360
     17 C           3.2995   -0.4416   -1.5600 C.ar    1  UNL1        0.0008
     18 C           4.4899   -0.3364   -2.3036 C.ar    1  UNL1       -0.0526
     19 C           4.6349    0.6489   -3.2758 C.ar    1  UNL1       -0.0611
     20 C           3.5936    1.5354   -3.5119 C.ar    1  UNL1       -0.0611
     21 C           2.4084    1.4350   -2.7756 C.ar    1  UNL1       -0.0534
     22 C           2.2238    0.4442   -1.7777 C.ar    1  UNL1       -0.0073
     23 H          -4.3218    0.9590    4.0397 H       1  UNL1        0.0631
     24 H          -5.5842   -1.1355    3.6889 H       1  UNL1        0.0618
     25 H          -4.8542   -2.7494    1.9515 H       1  UNL1        0.0618
     26 H          -2.8759   -2.2722    0.5643 H       1  UNL1        0.0624
     27 H          -2.1102    1.5452   -0.4360 H       1  UNL1        0.0624
     28 H          -0.1579    1.9154   -1.8230 H       1  UNL1        0.0624
     29 H          -0.1021   -1.7378    1.4908 H       1  UNL1        0.0645
     30 H           3.9369   -2.1326   -0.3724 H       1  UNL1        0.0836
     31 H           5.3136   -1.0250   -2.1265 H       1  UNL1        0.0624
     32 H           5.5576    0.7243   -3.8450 H       1  UNL1        0.0618
     33 H           3.6979    2.3097   -4.2679 H       1  UNL1        0.0618
     34 H           1.6250    2.1546   -2.9973 H       1  UNL1        0.0624
@<TRIPOS>BOND
     1     1     2    3
     2     2     3    1
     3     3     4   ar
     4     4     5   ar
     5     5     6   ar
     6     6     7   ar
     7     7     8   ar
     8     8     9    1
     9     9    10   ar
    10    10    11   ar
    11    11    12   ar
    12    12    13   ar
    13    13    14   ar
    14    13    15   ar
    15    15    16   ar
    16    16    17   ar
    17    17    18   ar
    18    18    19   ar
    19    19    20   ar
    20    20    21   ar
    21    21    22   ar
    22     8     3   ar
    23    14     9   ar
    24    22    17   ar
    25    22    12   ar
    26     4    23    1
    27     5    24    1
    28     6    25    1
    29     7    26    1
    30    10    27    1
    31    11    28    1
    32    14    29    1
    33    16    30    1
    34    18    31    1
    35    19    32    1
    36    20    33    1
    37    21    34    1
