@<TRIPOS>MOLECULE
*****
 33 36 0 0 0
SMALL
GASTEIGER

@<TRIPOS>ATOM
      1 N           3.0543   -1.7778   -2.5887 N.1     1  UNL1       -0.1909
      2 C           3.3485   -1.1477   -1.6591 C.1     1  UNL1        0.0998
      3 C           3.7499   -0.3763   -0.5152 C.ar    1  UNL1        0.0595
      4 C           5.0954    0.0149   -0.4191 C.ar    1  UNL1       -0.0438
      5 C           5.5362    0.7742    0.6641 C.ar    1  UNL1       -0.0605
      6 C           4.6373    1.1488    1.6575 C.ar    1  UNL1       -0.0611
      7 C           3.2977    0.7638    1.5692 C.ar    1  UNL1       -0.0528
      8 C           2.8292   -0.0051    0.4866 C.ar    1  UNL1       -0.0004
      9 C           1.4079   -0.3840    0.4423 C.ar    1  UNL1       -0.0129
     10 C           1.0066   -1.7120    0.6700 C.ar    1  UNL1       -0.0503
     11 C          -0.3446   -2.0688    0.6339 C.ar    1  UNL1       -0.0151
     12 C          -1.3088   -1.0990    0.3739 C.ar    1  UNL1        0.1706
     13 C          -0.9278    0.2216    0.1502 C.ar    1  UNL1        0.1712
     14 C           0.4203    0.5808    0.1841 C.ar    1  UNL1       -0.0079
     15 O          -1.8407    1.2135   -0.1081 O.3     1  UNL1       -0.4486
     16 C          -3.1535    0.8151   -0.1356 C.ar    1  UNL1        0.1706
     17 C          -4.1176    1.7872   -0.3988 C.ar    1  UNL1       -0.0156
     18 C          -5.4670    1.4314   -0.4372 C.ar    1  UNL1       -0.0581
     19 C          -5.8484    0.1067   -0.2129 C.ar    1  UNL1       -0.0581
     20 C          -4.8812   -0.8650    0.0505 C.ar    1  UNL1       -0.0156
     21 C          -3.5343   -0.5073    0.0884 C.ar    1  UNL1        0.1706
     22 O          -2.6212   -1.4974    0.3511 O.3     1  UNL1       -0.4486
     23 H           5.8073   -0.2699   -1.1925 H       1  UNL1        0.0631
     24 H           6.5795    1.0738    0.7318 H       1  UNL1        0.0618
     25 H           4.9767    1.7409    2.5044 H       1  UNL1        0.0618
     26 H           2.6116    1.0638    2.3605 H       1  UNL1        0.0624
     27 H           1.7473   -2.4820    0.8791 H       1  UNL1        0.0625
     28 H          -0.6409   -3.0997    0.8069 H       1  UNL1        0.0656
     29 H           0.6972    1.6168    0.0026 H       1  UNL1        0.0662
     30 H          -3.8194    2.8169   -0.5742 H       1  UNL1        0.0655
     31 H          -6.2216    2.1865   -0.6432 H       1  UNL1        0.0619
     32 H          -6.8997   -0.1689   -0.2442 H       1  UNL1        0.0619
     33 H          -5.1761   -1.8960    0.2241 H       1  UNL1        0.0655
@<TRIPOS>BOND
     1     1     2    3
     2     2     3    1
     3     3     4   ar
     4     4     5   ar
     5     5     6   ar
     6     6     7   ar
     7     7     8   ar
     8     8     9    1
     9     9    10   ar
    10    10    11   ar
    11    11    12   ar
    12    12    13   ar
    13    13    14   ar
    14    13    15    1
    15    15    16    1
    16    16    17   ar
    17    17    18   ar
    18    18    19   ar
    19    19    20   ar
    20    20    21   ar
    21    21    22    1
    22     8     3   ar
    23    14     9   ar
    24    21    16   ar
    25    22    12    1
    26     4    23    1
    27     5    24    1
    28     6    25    1
    29     7    26    1
    30    10    27    1
    31    11    28    1
    32    14    29    1
    33    17    30    1
    34    18    31    1
    35    19    32    1
    36    20    33    1
