@<TRIPOS>MOLECULE
*****
 32 35 0 0 0
SMALL
GASTEIGER

@<TRIPOS>ATOM
      1 N           2.5037   -2.3030    1.6185 N.1     1  UNL1       -0.1909
      2 C           2.4289   -1.2326    1.1751 C.1     1  UNL1        0.0998
      3 C           2.3849    0.0941    0.6243 C.ar    1  UNL1        0.0595
      4 C           3.5586    0.6226    0.0638 C.ar    1  UNL1       -0.0438
      5 C           3.5670    1.9072   -0.4795 C.ar    1  UNL1       -0.0605
      6 C           2.4055    2.6735   -0.4649 C.ar    1  UNL1       -0.0611
      7 C           1.2340    2.1554    0.0906 C.ar    1  UNL1       -0.0528
      8 C           1.2013    0.8594    0.6387 C.ar    1  UNL1        0.0001
      9 C          -0.0518    0.3569    1.2089 C.ar    1  UNL1       -0.0069
     10 C          -0.3325    0.5180    2.5804 C.ar    1  UNL1       -0.0533
     11 C          -1.5156    0.0405    3.1357 C.ar    1  UNL1       -0.0592
     12 C          -2.4613   -0.6124    2.3462 C.ar    1  UNL1       -0.0377
     13 C          -2.1805   -0.7672    0.9835 C.ar    1  UNL1        0.0481
     14 N          -2.9322   -1.3688    0.0023 N.ar    1  UNL1       -0.3529
     15 C          -2.2987   -1.3048   -1.2124 C.ar    1  UNL1        0.0658
     16 C          -2.6971   -1.7753   -2.4572 C.ar    1  UNL1        0.0514
     17 N          -1.8877   -1.5896   -3.5226 N.ar    1  UNL1       -0.2612
     18 C          -0.7101   -0.9555   -3.3430 C.ar    1  UNL1        0.0283
     19 C          -0.2532   -0.4635   -2.1290 C.ar    1  UNL1       -0.0338
     20 C          -1.0868   -0.6455   -1.0124 C.ar    1  UNL1        0.0109
     21 C          -1.0057   -0.3019    0.3851 C.ar    1  UNL1        0.0152
     22 H           4.4744    0.0334    0.0498 H       1  UNL1        0.0631
     23 H           4.4803    2.3106   -0.9111 H       1  UNL1        0.0618
     24 H           2.4085    3.6765   -0.8854 H       1  UNL1        0.0618
     25 H           0.3327    2.7675    0.0919 H       1  UNL1        0.0624
     26 H           0.3869    1.0203    3.2247 H       1  UNL1        0.0624
     27 H          -1.7032    0.1734    4.1988 H       1  UNL1        0.0618
     28 H          -3.3813   -0.9887    2.7830 H       1  UNL1        0.0638
     29 H          -3.8313   -1.8007    0.1587 H       1  UNL1        0.1659
     30 H          -3.6327   -2.2913   -2.6339 H       1  UNL1        0.0851
     31 H          -0.1096   -0.8447   -4.2421 H       1  UNL1        0.0830
     32 H           0.7047    0.0362   -2.0668 H       1  UNL1        0.0639
@<TRIPOS>BOND
     1     1     2    3
     2     2     3    1
     3     3     4   ar
     4     4     5   ar
     5     5     6   ar
     6     6     7   ar
     7     7     8   ar
     8     8     9    1
     9     9    10   ar
    10    10    11   ar
    11    11    12   ar
    12    12    13   ar
    13    13    14   ar
    14    14    15   ar
    15    15    16   ar
    16    16    17   ar
    17    17    18   ar
    18    18    19   ar
    19    19    20   ar
    20    20    21   ar
    21     8     3   ar
    22    21     9   ar
    23    21    13   ar
    24    20    15   ar
    25     4    22    1
    26     5    23    1
    27     6    24    1
    28     7    25    1
    29    10    26    1
    30    11    27    1
    31    12    28    1
    32    14    29    1
    33    16    30    1
    34    18    31    1
    35    19    32    1
