@<TRIPOS>MOLECULE
*****
 32 35 0 0 0
SMALL
GASTEIGER

@<TRIPOS>ATOM
      1 N          -2.9683   -0.2321   -2.3982 N.1     1  UNL1       -0.1909
      2 C          -2.6652    0.2686   -1.3957 C.1     1  UNL1        0.0998
      3 C          -2.3212    0.9145   -0.1592 C.ar    1  UNL1        0.0595
      4 C          -2.8844    2.1707    0.1159 C.ar    1  UNL1       -0.0438
      5 C          -2.5830    2.8361    1.3041 C.ar    1  UNL1       -0.0605
      6 C          -1.7194    2.2517    2.2255 C.ar    1  UNL1       -0.0611
      7 C          -1.1551    1.0026    1.9594 C.ar    1  UNL1       -0.0528
      8 C          -1.4415    0.3155    0.7650 C.ar    1  UNL1        0.0002
      9 C          -0.8220   -0.9907    0.5280 C.ar    1  UNL1       -0.0053
     10 C          -1.4807   -2.1881    0.8800 C.ar    1  UNL1       -0.0532
     11 C          -0.8941   -3.4353    0.6581 C.ar    1  UNL1       -0.0577
     12 C           0.3719   -3.5387    0.0803 C.ar    1  UNL1       -0.0187
     13 C           1.0071   -2.3454   -0.2584 C.ar    1  UNL1        0.1368
     14 O           2.2398   -2.2619   -0.8261 O.2     1  UNL1       -0.4548
     15 C           2.5080   -0.9419   -1.0060 C.ar    1  UNL1        0.1363
     16 C           3.6781   -0.4332   -1.5666 C.ar    1  UNL1       -0.0187
     17 C           3.7715    0.9575   -1.6693 C.ar    1  UNL1       -0.0582
     18 C           2.7357    1.7822   -1.2272 C.ar    1  UNL1       -0.0610
     19 C           1.5697    1.2401   -0.6665 C.ar    1  UNL1       -0.0504
     20 C           1.4505   -0.1601   -0.5520 C.ar    1  UNL1        0.0285
     21 C           0.4649   -1.0776   -0.0598 C.ar    1  UNL1        0.0356
     22 H          -3.5635    2.6367   -0.5967 H       1  UNL1        0.0631
     23 H          -3.0236    3.8087    1.5111 H       1  UNL1        0.0618
     24 H          -1.4831    2.7667    3.1540 H       1  UNL1        0.0618
     25 H          -0.4794    0.5615    2.6915 H       1  UNL1        0.0624
     26 H          -2.4705   -2.1467    1.3328 H       1  UNL1        0.0624
     27 H          -1.4308   -4.3400    0.9360 H       1  UNL1        0.0619
     28 H           0.8436   -4.4969   -0.1023 H       1  UNL1        0.0654
     29 H           4.4705   -1.0894   -1.9056 H       1  UNL1        0.0654
     30 H           4.6653    1.4019   -2.1022 H       1  UNL1        0.0619
     31 H           2.8320    2.8621   -1.3195 H       1  UNL1        0.0618
     32 H           0.7772    1.9011   -0.3302 H       1  UNL1        0.0625
@<TRIPOS>BOND
     1     1     2    3
     2     2     3    1
     3     3     4   ar
     4     4     5   ar
     5     5     6   ar
     6     6     7   ar
     7     7     8   ar
     8     8     9    1
     9     9    10   ar
    10    10    11   ar
    11    11    12   ar
    12    12    13   ar
    13    13    14   ar
    14    14    15   ar
    15    15    16   ar
    16    16    17   ar
    17    17    18   ar
    18    18    19   ar
    19    19    20   ar
    20    20    21   ar
    21     8     3   ar
    22    21     9   ar
    23    21    13   ar
    24    20    15   ar
    25     4    22    1
    26     5    23    1
    27     6    24    1
    28     7    25    1
    29    10    26    1
    30    11    27    1
    31    12    28    1
    32    16    29    1
    33    17    30    1
    34    18    31    1
    35    19    32    1
