@<TRIPOS>MOLECULE
*****
 25 26 0 0 0
SMALL
GASTEIGER

@<TRIPOS>ATOM
      1 N          -1.2139   -1.9541    2.6214 N.1     1  UNL1       -0.1909
      2 C          -1.4349   -1.3040    1.6852 C.1     1  UNL1        0.0998
      3 C          -1.7519   -0.5121    0.5290 C.ar    1  UNL1        0.0595
      4 C          -3.0848   -0.4826    0.0880 C.ar    1  UNL1       -0.0438
      5 C          -3.4423    0.2625   -1.0356 C.ar    1  UNL1       -0.0605
      6 C          -2.4721    0.9814   -1.7268 C.ar    1  UNL1       -0.0611
      7 C          -1.1449    0.9576   -1.2939 C.ar    1  UNL1       -0.0527
      8 C          -0.7611    0.2143   -0.1619 C.ar    1  UNL1        0.0012
      9 C           0.6533    0.2231    0.2565 C.ar    1  UNL1        0.0040
     10 C           1.0428    1.0537    1.3254 C.ar    1  UNL1       -0.0522
     11 C           2.3734    1.1194    1.7378 C.ar    1  UNL1       -0.0611
     12 C           3.3387    0.3706    1.0751 C.ar    1  UNL1       -0.0600
     13 C           2.9706   -0.4556    0.0125 C.ar    1  UNL1       -0.0405
     14 C           1.6295   -0.5790   -0.3783 C.ar    1  UNL1        0.0324
     15 N           1.3352   -1.3367   -1.5285 N.pl3   1  UNL1       -0.3575
     16 H          -3.8525   -1.0427    0.6198 H       1  UNL1        0.0631
     17 H          -4.4764    0.2811   -1.3717 H       1  UNL1        0.0618
     18 H          -2.7446    1.5624   -2.6049 H       1  UNL1        0.0618
     19 H          -0.3952    1.5217   -1.8483 H       1  UNL1        0.0624
     20 H           0.3040    1.6668    1.8382 H       1  UNL1        0.0624
     21 H           2.6561    1.7660    2.5643 H       1  UNL1        0.0618
     22 H           4.3810    0.4358    1.3760 H       1  UNL1        0.0618
     23 H           3.7445   -1.0100   -0.5124 H       1  UNL1        0.0636
     24 H           0.3659   -1.6338   -1.5855 H       1  UNL1        0.1423
     25 H           1.9798   -2.1060   -1.6814 H       1  UNL1        0.1423
@<TRIPOS>BOND
     1     1     2    3
     2     2     3    1
     3     3     4   ar
     4     4     5   ar
     5     5     6   ar
     6     6     7   ar
     7     7     8   ar
     8     8     9    1
     9     9    10   ar
    10    10    11   ar
    11    11    12   ar
    12    12    13   ar
    13    13    14   ar
    14    14    15    1
    15     8     3   ar
    16    14     9   ar
    17     4    16    1
    18     5    17    1
    19     6    18    1
    20     7    19    1
    21    10    20    1
    22    11    21    1
    23    12    22    1
    24    13    23    1
    25    15    24    1
    26    15    25    1
