@<TRIPOS>MOLECULE
*****
 21 22 0 0 0
SMALL
GASTEIGER

@<TRIPOS>ATOM
      1 N          -0.2248    3.3889   -0.5339 N.1     1  UNL1       -0.1908
      2 C           0.3580    2.3873   -0.4644 C.1     1  UNL1        0.0998
      3 C           1.1251    1.1786   -0.3340 C.ar    1  UNL1        0.0610
      4 C           2.5259    1.2749   -0.3702 C.ar    1  UNL1       -0.0437
      5 C           3.3181    0.1381   -0.2133 C.ar    1  UNL1       -0.0605
      6 C           2.7184   -1.1019   -0.0179 C.ar    1  UNL1       -0.0611
      7 C           1.3261   -1.2063    0.0193 C.ar    1  UNL1       -0.0513
      8 C           0.5055   -0.0720   -0.1379 C.ar    1  UNL1        0.0195
      9 C          -0.9505   -0.2248   -0.1059 C.ar    1  UNL1        0.0945
     10 C          -1.6485   -0.5346    1.0544 C.ar    1  UNL1       -0.0324
     11 C          -3.0305   -0.6615    0.9872 C.ar    1  UNL1       -0.0398
     12 C          -3.6420   -0.4791   -0.2369 C.ar    1  UNL1        0.0500
     13 N          -2.9481   -0.1896   -1.3541 N.ar    1  UNL1       -0.1571
     14 N          -1.5890   -0.0595   -1.2863 N.ar    1  UNL1       -0.1492
     15 H           3.0064    2.2409   -0.5197 H       1  UNL1        0.0631
     16 H           4.4021    0.2205   -0.2462 H       1  UNL1        0.0618
     17 H           3.3333   -1.9918    0.0976 H       1  UNL1        0.0618
     18 H           0.8769   -2.1895    0.1554 H       1  UNL1        0.0624
     19 H          -1.1310   -0.6657    1.9990 H       1  UNL1        0.0640
     20 H          -3.6159   -0.8932    1.8696 H       1  UNL1        0.0634
     21 H          -4.7156   -0.5596   -0.3618 H       1  UNL1        0.0848
@<TRIPOS>BOND
     1     1     2    3
     2     2     3    1
     3     3     4   ar
     4     4     5   ar
     5     5     6   ar
     6     6     7   ar
     7     7     8   ar
     8     8     9    1
     9     9    10   ar
    10    10    11   ar
    11    11    12   ar
    12    12    13   ar
    13    13    14   ar
    14     8     3   ar
    15    14     9   ar
    16     4    15    1
    17     5    16    1
    18     6    17    1
    19     7    18    1
    20    10    19    1
    21    11    20    1
    22    12    21    1
