@<TRIPOS>MOLECULE
*****
 40 46 0 0 0
SMALL
GASTEIGER

@<TRIPOS>ATOM
      1 SI          1.6304   -0.5485    0.0660 Si      1  UNL1        0.0000
      2 C           2.5304    1.0881   -0.1158 C.2     1  UNL1        0.0000
      3 C           1.6446    2.1032   -0.1966 C.2     1  UNL1        0.0000
      4 C           0.2322    1.6911   -0.1246 C.ar    1  UNL1        0.0000
      5 C          -0.8339    2.5532   -0.1863 C.ar    1  UNL1        0.0000
      6 N          -2.1176    2.1434   -0.1173 N.ar    1  UNL1        0.0000
      7 C          -2.4394    0.8338    0.0193 C.ar    1  UNL1        0.0000
      8 C          -3.8393    0.5235    0.0811 C.ar    1  UNL1        0.0000
      9 N          -4.7495    1.5265    0.0020 N.ar    1  UNL1        0.0000
     10 C          -6.0762    1.2701    0.0568 C.ar    1  UNL1        0.0000
     11 C          -6.6122    0.0097    0.1933 C.ar    1  UNL1        0.0000
     12 C          -5.7297   -1.0520    0.2788 C.ar    1  UNL1        0.0000
     13 C          -4.3348   -0.8053    0.2235 C.ar    1  UNL1        0.0000
     14 C          -3.3137   -1.7819    0.2974 C.ar    1  UNL1        0.0000
     15 C          -3.5647   -3.1288    0.4362 C.ar    1  UNL1        0.0000
     16 S          -2.1213   -4.0428    0.4946 S.2     1  UNL1        0.0000
     17 C          -1.1565   -2.6322    0.3337 C.ar    1  UNL1        0.0000
     18 C          -1.9033   -1.4798    0.2363 C.ar    1  UNL1        0.0000
     19 C          -1.3802   -0.1502    0.0932 C.ar    1  UNL1        0.0000
     20 C          -0.0323    0.3145    0.0174 C.ar    1  UNL1        0.0000
     21 C           3.9498    1.2147   -0.1597 C.ar    1  UNL1        0.0000
     22 S           4.7254    2.8011   -0.3341 S.2     1  UNL1        0.0000
     23 C           6.3311    2.1808   -0.3081 C.ar    1  UNL1        0.0000
     24 C           6.2460    0.8492   -0.1742 C.ar    1  UNL1        0.0000
     25 O           7.3003   -0.0085   -0.1124 O.2     1  UNL1        0.0000
     26 C           6.6206   -1.2009    0.0208 C.ar    1  UNL1        0.0000
     27 C           5.2272   -1.0652    0.0381 C.ar    1  UNL1        0.0000
     28 C           4.9782    0.3204   -0.0937 C.ar    1  UNL1        0.0000
     29 H           1.8298   -1.4535   -1.0949 H       1  UNL1        0.0000
     30 H           1.8844   -1.2096    1.3717 H       1  UNL1        0.0000
     31 H           1.8883    3.1525   -0.3058 H       1  UNL1        0.0000
     32 H          -0.7026    3.6254   -0.2952 H       1  UNL1        0.0000
     33 H          -6.7134    2.1472   -0.0158 H       1  UNL1        0.0000
     34 H          -7.6846   -0.1395    0.2319 H       1  UNL1        0.0000
     35 H          -6.1252   -2.0564    0.3869 H       1  UNL1        0.0000
     36 H          -4.5096   -3.6483    0.5085 H       1  UNL1        0.0000
     37 H          -0.0919   -2.7855    0.3253 H       1  UNL1        0.0000
     38 H           7.2176    2.7924   -0.3883 H       1  UNL1        0.0000
     39 H           7.2650   -2.0676    0.0925 H       1  UNL1        0.0000
     40 H           4.5307   -1.8842    0.1347 H       1  UNL1        0.0000
@<TRIPOS>BOND
     1     1     2    1
     2     2     3    2
     3     3     4    1
     4     4     5   ar
     5     5     6   ar
     6     6     7   ar
     7     7     8   ar
     8     8     9   ar
     9     9    10   ar
    10    10    11   ar
    11    11    12   ar
    12    12    13   ar
    13    13    14   ar
    14    14    15   ar
    15    15    16   ar
    16    16    17   ar
    17    17    18   ar
    18    18    19   ar
    19    19    20   ar
    20     2    21    1
    21    21    22   ar
    22    22    23   ar
    23    23    24   ar
    24    24    25   ar
    25    25    26   ar
    26    26    27   ar
    27    27    28   ar
    28    20     1    1
    29    28    21   ar
    30    20     4   ar
    31    28    24   ar
    32    19     7   ar
    33    13     8   ar
    34    18    14   ar
    35     1    29    1
    36     1    30    1
    37     3    31    1
    38     5    32    1
    39    10    33    1
    40    11    34    1
    41    12    35    1
    42    15    36    1
    43    17    37    1
    44    23    38    1
    45    26    39    1
    46    27    40    1
