@<TRIPOS>MOLECULE
*****
 44 51 0 0 0
SMALL
GASTEIGER

@<TRIPOS>ATOM
      1 SI         -5.8873    0.1077   -1.4593 Si      1  UNL1        0.0000
      2 C          -7.0960    0.0951   -0.0250 C.2     1  UNL1        0.0000
      3 C          -6.4873   -0.0233    1.1663 C.2     1  UNL1        0.0000
      4 C          -5.0218   -0.1114    1.0804 C.ar    1  UNL1        0.0000
      5 C          -4.1964   -0.2744    2.1725 C.ar    1  UNL1        0.0000
      6 C          -2.8094   -0.3405    1.9799 C.ar    1  UNL1        0.0000
      7 C          -2.1688   -0.2192    0.7175 C.ar    1  UNL1        0.0000
      8 C          -3.0537   -0.1420   -0.4108 C.ar    1  UNL1        0.0000
      9 C          -4.4624   -0.0582   -0.2142 C.ar    1  UNL1        0.0000
     10 C          -2.4277   -0.1914   -1.7094 C.ar    1  UNL1        0.0000
     11 N          -3.0592   -0.1446   -2.8980 N.ar    1  UNL1        0.0000
     12 S          -1.9193   -0.2883   -4.0807 S.2     1  UNL1        0.0000
     13 N          -0.5588   -0.4126   -3.1575 N.ar    1  UNL1        0.0000
     14 C          -0.9390   -0.3347   -1.8665 C.ar    1  UNL1        0.0000
     15 C          -0.0626   -0.3683   -0.7392 C.ar    1  UNL1        0.0000
     16 C           1.3534   -0.5185   -0.9922 C.ar    1  UNL1        0.0000
     17 C           2.3360   -0.5045    0.0083 C.ar    1  UNL1        0.0000
     18 C           3.7555   -0.6569   -0.2618 C.ar    1  UNL1        0.0000
     19 S           4.3442   -2.1929   -0.7823 S.2     1  UNL1        0.0000
     20 C           5.9634   -1.6353   -0.8892 C.ar    1  UNL1        0.0000
     21 C           6.0585   -0.3125   -0.5431 C.ar    1  UNL1        0.0000
     22 N           7.2360    0.3717   -0.5465 N.ar    1  UNL1        0.0000
     23 C           7.0399    1.6646   -0.1659 C.ar    1  UNL1        0.0000
     24 C           5.8050    2.2244    0.1856 C.ar    1  UNL1        0.0000
     25 N           4.6174    1.5593    0.1997 N.ar    1  UNL1        0.0000
     26 C           4.7831    0.2588   -0.1809 C.ar    1  UNL1        0.0000
     27 C           1.7880   -0.2565    1.2719 C.ar    1  UNL1        0.0000
     28 C           2.5579   -0.1273    2.4070 C.ar    1  UNL1        0.0000
     29 S           1.6200    0.2994    3.7688 S.2     1  UNL1        0.0000
     30 C           0.1757    0.3082    2.8433 C.ar    1  UNL1        0.0000
     31 C           0.3580   -0.1069    1.5410 C.ar    1  UNL1        0.0000
     32 C          -0.6987   -0.2284    0.5561 C.ar    1  UNL1        0.0000
     33 H          -5.9109    1.4205   -2.1534 H       1  UNL1        0.0000
     34 H          -6.0771   -1.0967   -2.3072 H       1  UNL1        0.0000
     35 H          -8.1583    0.1744   -0.1965 H       1  UNL1        0.0000
     36 H          -7.0035   -0.0539    2.1167 H       1  UNL1        0.0000
     37 H          -4.6075   -0.3686    3.1739 H       1  UNL1        0.0000
     38 H          -2.2335   -0.5588    2.8728 H       1  UNL1        0.0000
     39 H           1.6876   -0.6397   -2.0253 H       1  UNL1        0.0000
     40 H           6.7586   -2.2974   -1.1996 H       1  UNL1        0.0000
     41 H           7.9387    2.2749   -0.1475 H       1  UNL1        0.0000
     42 H           5.7441    3.2695    0.4769 H       1  UNL1        0.0000
     43 H           3.6297   -0.2166    2.5181 H       1  UNL1        0.0000
     44 H          -0.7116    0.6515    3.3483 H       1  UNL1        0.0000
@<TRIPOS>BOND
     1     1     2    1
     2     2     3    2
     3     3     4    1
     4     4     5   ar
     5     5     6   ar
     6     6     7   ar
     7     7     8   ar
     8     8     9   ar
     9     8    10   ar
    10    10    11   ar
    11    11    12   ar
    12    12    13   ar
    13    13    14   ar
    14    14    15   ar
    15    15    16   ar
    16    16    17   ar
    17    17    18    1
    18    18    19   ar
    19    19    20   ar
    20    20    21   ar
    21    21    22   ar
    22    22    23   ar
    23    23    24   ar
    24    24    25   ar
    25    25    26   ar
    26    17    27   ar
    27    27    28   ar
    28    28    29   ar
    29    29    30   ar
    30    30    31   ar
    31    31    32   ar
    32     9     1    1
    33    14    10   ar
    34    32    15   ar
    35     9     4   ar
    36    26    18   ar
    37    31    27   ar
    38    32     7   ar
    39    26    21   ar
    40     1    33    1
    41     1    34    1
    42     2    35    1
    43     3    36    1
    44     5    37    1
    45     6    38    1
    46    16    39    1
    47    20    40    1
    48    23    41    1
    49    24    42    1
    50    28    43    1
    51    30    44    1
