@<TRIPOS>MOLECULE
*****
 20 21 0 0 0
SMALL
GASTEIGER

@<TRIPOS>ATOM
      1 N           0.8231    3.2299    0.8725 N.1     1  UNL1       -0.1909
      2 C           0.8705    2.2235    0.2960 C.1     1  UNL1        0.0998
      3 C           0.9510    0.9981   -0.4473 C.ar    1  UNL1        0.0596
      4 C           1.9463    0.8938   -1.4339 C.ar    1  UNL1       -0.0438
      5 C           2.0904   -0.2778   -2.1771 C.ar    1  UNL1       -0.0605
      6 C           1.2428   -1.3553   -1.9408 C.ar    1  UNL1       -0.0611
      7 C           0.2505   -1.2620   -0.9625 C.ar    1  UNL1       -0.0527
      8 C           0.0901   -0.0879   -0.2049 C.ar    1  UNL1        0.0024
      9 C          -0.9660   -0.0430    0.7923 C.ar    1  UNL1        0.0205
     10 C          -1.9961    0.8969    1.0248 C.ar    1  UNL1        0.0569
     11 N          -2.7826    0.5513    2.0477 N.ar    1  UNL1       -0.1817
     12 N          -2.2477   -0.5988    2.4856 N.ar    1  UNL1       -0.2841
     13 C          -1.1652   -1.0052    1.7598 C.ar    1  UNL1        0.0301
     14 H           2.6191    1.7287   -1.6260 H       1  UNL1        0.0631
     15 H           2.8635   -0.3489   -2.9388 H       1  UNL1        0.0618
     16 H           1.3497   -2.2698   -2.5199 H       1  UNL1        0.0618
     17 H          -0.4089   -2.1138   -0.8040 H       1  UNL1        0.0624
     18 H          -2.2127    1.8131    0.4893 H       1  UNL1        0.0854
     19 H          -2.6766   -1.0542    3.2848 H       1  UNL1        0.1882
     20 H          -0.6411   -1.9186    2.0025 H       1  UNL1        0.0830
@<TRIPOS>BOND
     1     1     2    3
     2     2     3    1
     3     3     4   ar
     4     4     5   ar
     5     5     6   ar
     6     6     7   ar
     7     7     8   ar
     8     8     9    1
     9     9    10   ar
    10    10    11   ar
    11    11    12   ar
    12    12    13   ar
    13     8     3   ar
    14    13     9   ar
    15     4    14    1
    16     5    15    1
    17     6    16    1
    18     7    17    1
    19    10    18    1
    20    12    19    1
    21    13    20    1
