@<TRIPOS>MOLECULE
*****
 30 33 0 0 0
SMALL
GASTEIGER

@<TRIPOS>ATOM
      1 N          -2.3273   -0.9875   -2.4320 N.1     1  UNL1       -0.1909
      2 C          -2.4276   -1.2593   -1.3081 C.1     1  UNL1        0.0998
      3 C          -2.5750   -1.5769    0.0854 C.ar    1  UNL1        0.0595
      4 C          -3.8441   -1.9706    0.5407 C.ar    1  UNL1       -0.0438
      5 C          -4.0453   -2.2985    1.8805 C.ar    1  UNL1       -0.0605
      6 C          -2.9820   -2.2354    2.7745 C.ar    1  UNL1       -0.0611
      7 C          -1.7166   -1.8451    2.3299 C.ar    1  UNL1       -0.0528
      8 C          -1.4860   -1.5083    0.9812 C.ar    1  UNL1        0.0009
      9 C          -0.1318   -1.1070    0.5670 C.ar    1  UNL1        0.0021
     10 C           0.9411   -1.9944    0.6339 C.ar    1  UNL1        0.0366
     11 N           2.2228   -1.7300    0.2988 N.ar    1  UNL1       -0.2472
     12 C           2.4268   -0.4731   -0.1473 C.ar    1  UNL1        0.1107
     13 S           3.9797    0.0345   -0.6178 S.2     1  UNL1       -0.0490
     14 C           3.4132    1.5897   -1.0080 C.ar    1  UNL1        0.1107
     15 N           4.2606    2.5301   -1.4783 N.ar    1  UNL1       -0.2478
     16 C           3.6761    3.7130   -1.7510 C.ar    1  UNL1        0.0289
     17 C           2.3337    4.0017   -1.5820 C.ar    1  UNL1       -0.0429
     18 C           1.4938    3.0052   -1.0905 C.ar    1  UNL1       -0.0500
     19 C           2.0472    1.7411   -0.7868 C.ar    1  UNL1        0.0169
     20 C           1.4667    0.5246   -0.2751 C.ar    1  UNL1        0.0175
     21 C           0.1461    0.1863    0.1045 C.ar    1  UNL1       -0.0422
     22 H          -4.6842   -2.0259   -0.1505 H       1  UNL1        0.0631
     23 H          -5.0308   -2.6031    2.2259 H       1  UNL1        0.0618
     24 H          -3.1352   -2.4886    3.8214 H       1  UNL1        0.0618
     25 H          -0.9032   -1.7965    3.0538 H       1  UNL1        0.0624
     26 H           0.7873   -3.0153    0.9819 H       1  UNL1        0.0836
     27 H           4.3544    4.4725   -2.1339 H       1  UNL1        0.0830
     28 H           1.9457    4.9840   -1.8298 H       1  UNL1        0.0633
     29 H           0.4347    3.1998   -0.9501 H       1  UNL1        0.0625
     30 H          -0.6406    0.9330    0.0347 H       1  UNL1        0.0631
@<TRIPOS>BOND
     1     1     2    3
     2     2     3    1
     3     3     4   ar
     4     4     5   ar
     5     5     6   ar
     6     6     7   ar
     7     7     8   ar
     8     8     9    1
     9     9    10   ar
    10    10    11   ar
    11    11    12   ar
    12    12    13   ar
    13    13    14   ar
    14    14    15   ar
    15    15    16   ar
    16    16    17   ar
    17    17    18   ar
    18    18    19   ar
    19    19    20   ar
    20    20    21   ar
    21     8     3   ar
    22    21     9   ar
    23    20    12   ar
    24    19    14   ar
    25     4    22    1
    26     5    23    1
    27     6    24    1
    28     7    25    1
    29    10    26    1
    30    16    27    1
    31    17    28    1
    32    18    29    1
    33    21    30    1
