@<TRIPOS>MOLECULE
*****
 31 34 0 0 0
SMALL
GASTEIGER

@<TRIPOS>ATOM
      1 N           2.0831    0.5558   -2.9627 N.1     1  UNL1       -0.1909
      2 C           2.3595    0.3779   -1.8498 C.1     1  UNL1        0.0998
      3 C           2.7233    0.1196   -0.4841 C.ar    1  UNL1        0.0596
      4 C           3.9525   -0.5107   -0.2331 C.ar    1  UNL1       -0.0438
      5 C           4.3519   -0.7872    1.0739 C.ar    1  UNL1       -0.0605
      6 C           3.5277   -0.4363    2.1384 C.ar    1  UNL1       -0.0611
      7 C           2.3038    0.1910    1.8973 C.ar    1  UNL1       -0.0527
      8 C           1.8792    0.4785    0.5867 C.ar    1  UNL1        0.0029
      9 C           0.5884    1.1358    0.3896 C.ar    1  UNL1        0.0253
     10 C           0.3938    2.5065    0.5629 C.ar    1  UNL1        0.0373
     11 N          -0.7808    3.1594    0.4096 N.ar    1  UNL1       -0.2619
     12 C          -1.8787    2.4509    0.0524 C.ar    1  UNL1        0.0374
     13 C          -1.8036    1.0656   -0.1421 C.ar    1  UNL1        0.0275
     14 C          -0.5706    0.4325    0.0316 C.ar    1  UNL1        0.0583
     15 N          -0.7726   -0.9088   -0.2104 N.ar    1  UNL1       -0.3535
     16 C          -2.0839   -1.1590   -0.5341 C.ar    1  UNL1        0.0504
     17 C          -2.7264   -2.3534   -0.8529 C.ar    1  UNL1       -0.0196
     18 C          -4.0798   -2.2340   -1.1294 C.ar    1  UNL1        0.0295
     19 N          -4.7759   -1.0765   -1.1064 N.ar    1  UNL1       -0.2625
     20 C          -4.1263    0.0731   -0.7974 C.ar    1  UNL1        0.0373
     21 C          -2.7571    0.0612   -0.5008 C.ar    1  UNL1        0.0269
     22 H           4.6081   -0.7873   -1.0580 H       1  UNL1        0.0631
     23 H           5.3070   -1.2730    1.2614 H       1  UNL1        0.0618
     24 H           3.8373   -0.6479    3.1597 H       1  UNL1        0.0618
     25 H           1.6737    0.4571    2.7461 H       1  UNL1        0.0624
     26 H           1.2246    3.1503    0.8455 H       1  UNL1        0.0836
     27 H          -2.7966    3.0160   -0.0650 H       1  UNL1        0.0836
     28 H          -0.0522   -1.6149   -0.1571 H       1  UNL1        0.1659
     29 H          -2.2166   -3.3072   -0.8867 H       1  UNL1        0.0653
     30 H          -4.6669   -3.1114   -1.3896 H       1  UNL1        0.0830
     31 H          -4.7257    0.9763   -0.7955 H       1  UNL1        0.0836
@<TRIPOS>BOND
     1     1     2    3
     2     2     3    1
     3     3     4   ar
     4     4     5   ar
     5     5     6   ar
     6     6     7   ar
     7     7     8   ar
     8     8     9    1
     9     9    10   ar
    10    10    11   ar
    11    11    12   ar
    12    12    13   ar
    13    13    14   ar
    14    14    15   ar
    15    15    16   ar
    16    16    17   ar
    17    17    18   ar
    18    18    19   ar
    19    19    20   ar
    20    20    21   ar
    21     8     3   ar
    22    14     9   ar
    23    21    16   ar
    24    21    13   ar
    25     4    22    1
    26     5    23    1
    27     6    24    1
    28     7    25    1
    29    10    26    1
    30    12    27    1
    31    15    28    1
    32    17    29    1
    33    18    30    1
    34    20    31    1
