@<TRIPOS>MOLECULE
*****
 27 30 0 0 0
SMALL
GASTEIGER

@<TRIPOS>ATOM
      1 N          -2.6014    2.0239   -2.4967 N.1     1  UNL1       -0.1908
      2 C          -2.6697    1.0159   -1.9242 C.1     1  UNL1        0.0999
      3 C          -2.8503   -0.2444   -1.2551 C.ar    1  UNL1        0.0640
      4 C          -4.0764   -0.9049   -1.4614 C.ar    1  UNL1       -0.0436
      5 C          -4.3391   -2.1309   -0.8532 C.ar    1  UNL1       -0.0605
      6 C          -3.3798   -2.7101   -0.0324 C.ar    1  UNL1       -0.0610
      7 C          -2.1593   -2.0630    0.1792 C.ar    1  UNL1       -0.0483
      8 C          -1.8685   -0.8216   -0.4246 C.ar    1  UNL1        0.0542
      9 C          -0.5755   -0.1753   -0.1770 C.ar    1  UNL1        0.2296
     10 N          -0.1070    0.9697   -0.6376 N.ar    1  UNL1       -0.2088
     11 C           1.1407    1.0737   -0.0846 C.ar    1  UNL1        0.1135
     12 C           2.1268    2.0572   -0.1923 C.ar    1  UNL1        0.0120
     13 C           3.3070    1.8578    0.5107 C.ar    1  UNL1        0.1573
     14 O           4.4039    2.6660    0.5637 O.2     1  UNL1       -0.4424
     15 C           5.2553    1.9930    1.3905 C.ar    1  UNL1        0.1831
     16 N           4.8070    0.8480    1.8612 N.ar    1  UNL1       -0.2160
     17 C           3.5579    0.7464    1.3061 C.ar    1  UNL1        0.1129
     18 C           2.5703   -0.2364    1.4125 C.ar    1  UNL1        0.0120
     19 C           1.3908   -0.0355    0.7090 C.ar    1  UNL1        0.1580
     20 O           0.2948   -0.8426    0.6558 O.2     1  UNL1       -0.4352
     21 H          -4.8368   -0.4602   -2.1032 H       1  UNL1        0.0631
     22 H          -5.2902   -2.6312   -1.0204 H       1  UNL1        0.0618
     23 H          -3.5774   -3.6670    0.4460 H       1  UNL1        0.0618
     24 H          -1.4305   -2.5466    0.8288 H       1  UNL1        0.0625
     25 H           1.9728    2.9401   -0.8018 H       1  UNL1        0.0677
     26 H           6.2113    2.4615    1.5793 H       1  UNL1        0.1255
     27 H           2.7233   -1.1192    2.0215 H       1  UNL1        0.0677
@<TRIPOS>BOND
     1     1     2    3
     2     2     3    1
     3     3     4   ar
     4     4     5   ar
     5     5     6   ar
     6     6     7   ar
     7     7     8   ar
     8     8     9    1
     9     9    10   ar
    10    10    11   ar
    11    11    12   ar
    12    12    13   ar
    13    13    14   ar
    14    14    15   ar
    15    15    16   ar
    16    16    17   ar
    17    17    18   ar
    18    18    19   ar
    19    19    20   ar
    20     8     3   ar
    21    20     9   ar
    22    19    11   ar
    23    17    13   ar
    24     4    21    1
    25     5    22    1
    26     6    23    1
    27     7    24    1
    28    12    25    1
    29    15    26    1
    30    18    27    1
