@<TRIPOS>MOLECULE
*****
 27 30 0 0 0
SMALL
GASTEIGER

@<TRIPOS>ATOM
      1 N           2.5047   -2.5640    0.7236 N.1     1  UNL1       -0.1908
      2 C           2.7155   -1.4242    0.6563 C.1     1  UNL1        0.0998
      3 C           3.0442   -0.0285    0.5552 C.ar    1  UNL1        0.0614
      4 C           4.3733    0.3559    0.7992 C.ar    1  UNL1       -0.0437
      5 C           4.7563    1.6925    0.6901 C.ar    1  UNL1       -0.0605
      6 C           3.8162    2.6557    0.3376 C.ar    1  UNL1       -0.0610
      7 C           2.4922    2.2838    0.0930 C.ar    1  UNL1       -0.0508
      8 C           2.0881    0.9389    0.1924 C.ar    1  UNL1        0.0245
      9 C           0.6862    0.5727   -0.0443 C.ar    1  UNL1        0.1107
     10 N          -0.0479   -0.1185    0.7997 N.ar    1  UNL1       -0.2390
     11 C          -1.3091   -0.3309    0.2735 C.ar    1  UNL1        0.0801
     12 C          -2.3532   -1.0338    0.8875 C.ar    1  UNL1       -0.0194
     13 C          -3.5833   -1.1717    0.2450 C.ar    1  UNL1        0.0410
     14 S          -5.0144   -1.9737    0.7671 S.2     1  UNL1       -0.0753
     15 C          -5.7853   -1.5252   -0.6943 C.ar    1  UNL1        0.0659
     16 N          -5.0679   -0.8242   -1.5426 N.ar    1  UNL1       -0.2474
     17 C          -3.8041   -0.6175   -1.0165 C.ar    1  UNL1        0.0793
     18 C          -2.7581    0.0832   -1.6306 C.ar    1  UNL1       -0.0194
     19 C          -1.5282    0.2200   -0.9876 C.ar    1  UNL1        0.0416
     20 S          -0.0957    1.0138   -1.5107 S.2     1  UNL1       -0.0671
     21 H           5.1187   -0.3892    1.0748 H       1  UNL1        0.0631
     22 H           5.7873    1.9814    0.8824 H       1  UNL1        0.0618
     23 H           4.1107    3.7000    0.2583 H       1  UNL1        0.0618
     24 H           1.7725    3.0600   -0.1626 H       1  UNL1        0.0625
     25 H          -2.1886   -1.4706    1.8687 H       1  UNL1        0.0651
     26 H          -6.8095   -1.8071   -0.9012 H       1  UNL1        0.0907
     27 H          -2.9207    0.5153   -2.6139 H       1  UNL1        0.0651
@<TRIPOS>BOND
     1     1     2    3
     2     2     3    1
     3     3     4   ar
     4     4     5   ar
     5     5     6   ar
     6     6     7   ar
     7     7     8   ar
     8     8     9    1
     9     9    10   ar
    10    10    11   ar
    11    11    12   ar
    12    12    13   ar
    13    13    14   ar
    14    14    15   ar
    15    15    16   ar
    16    16    17   ar
    17    17    18   ar
    18    18    19   ar
    19    19    20   ar
    20     8     3   ar
    21    20     9   ar
    22    19    11   ar
    23    17    13   ar
    24     4    21    1
    25     5    22    1
    26     6    23    1
    27     7    24    1
    28    12    25    1
    29    15    26    1
    30    18    27    1
