@<TRIPOS>MOLECULE
*****
 25 27 0 0 0
SMALL
GASTEIGER

@<TRIPOS>ATOM
      1 N          -1.2827    3.2150    1.4801 N.1     1  UNL1       -0.1908
      2 C          -1.5417    2.5781    0.5450 C.1     1  UNL1        0.0998
      3 C          -1.8753    1.8149   -0.6241 C.ar    1  UNL1        0.0614
      4 C          -2.9387    2.2611   -1.4261 C.ar    1  UNL1       -0.0437
      5 C          -3.3282    1.5377   -2.5538 C.ar    1  UNL1       -0.0605
      6 C          -2.6653    0.3598   -2.8852 C.ar    1  UNL1       -0.0610
      7 C          -1.6065   -0.0903   -2.0943 C.ar    1  UNL1       -0.0508
      8 C          -1.1875    0.6365   -0.9653 C.ar    1  UNL1        0.0245
      9 C          -0.0702    0.1043   -0.1795 C.ar    1  UNL1        0.1107
     10 N          -0.0919   -1.0573    0.4361 N.ar    1  UNL1       -0.2390
     11 C           1.1236   -1.2837    1.0607 C.ar    1  UNL1        0.0789
     12 C           1.4561   -2.4124    1.8369 C.ar    1  UNL1       -0.0352
     13 C           2.7280   -2.5129    2.4102 C.ar    1  UNL1       -0.0597
     14 C           3.6688   -1.5060    2.2181 C.ar    1  UNL1       -0.0606
     15 C           3.3647   -0.3773    1.4506 C.ar    1  UNL1       -0.0459
     16 C           2.0841   -0.2867    0.8804 C.ar    1  UNL1        0.0395
     17 S           1.4196    0.9572   -0.1065 S.2     1  UNL1       -0.0671
     18 H          -3.4762    3.1732   -1.1697 H       1  UNL1        0.0631
     19 H          -4.1553    1.8881   -3.1674 H       1  UNL1        0.0618
     20 H          -2.9738   -0.2135   -3.7565 H       1  UNL1        0.0618
     21 H          -1.1029   -1.0195   -2.3594 H       1  UNL1        0.0625
     22 H           0.7186   -3.1949    1.9855 H       1  UNL1        0.0639
     23 H           2.9793   -3.3841    3.0107 H       1  UNL1        0.0618
     24 H           4.6541   -1.5956    2.6712 H       1  UNL1        0.0618
     25 H           4.0995    0.4082    1.3023 H       1  UNL1        0.0629
@<TRIPOS>BOND
     1     1     2    3
     2     2     3    1
     3     3     4   ar
     4     4     5   ar
     5     5     6   ar
     6     6     7   ar
     7     7     8   ar
     8     8     9    1
     9     9    10   ar
    10    10    11   ar
    11    11    12   ar
    12    12    13   ar
    13    13    14   ar
    14    14    15   ar
    15    15    16   ar
    16    16    17   ar
    17     8     3   ar
    18    17     9   ar
    19    16    11   ar
    20     4    18    1
    21     5    19    1
    22     6    20    1
    23     7    21    1
    24    12    22    1
    25    13    23    1
    26    14    24    1
    27    15    25    1
