@<TRIPOS>MOLECULE
*****
 27 30 0 0 0
SMALL
GASTEIGER

@<TRIPOS>ATOM
      1 N          -0.0278    3.7781   -0.5331 N.1     1  UNL1       -0.1908
      2 C          -0.9714    3.1521   -0.2791 C.1     1  UNL1        0.0999
      3 C          -2.0622    2.2919    0.0586 C.ar    1  UNL1        0.0624
      4 C          -3.3282    2.8882    0.2111 C.ar    1  UNL1       -0.0437
      5 C          -4.4426    2.1182    0.5355 C.ar    1  UNL1       -0.0605
      6 C          -4.3012    0.7480    0.7086 C.ar    1  UNL1       -0.0610
      7 C          -3.0460    0.1517    0.5585 C.ar    1  UNL1       -0.0499
      8 C          -1.8965    0.9029    0.2339 C.ar    1  UNL1        0.0347
      9 C          -0.6241    0.1526    0.1002 C.ar    1  UNL1        0.1434
     10 N          -0.5458   -1.1745    0.1291 N.ar    1  UNL1       -0.2068
     11 C           0.7756   -1.4854   -0.0133 C.ar    1  UNL1        0.1998
     12 N           1.3385   -2.7175   -0.0435 N.ar    1  UNL1       -0.2020
     13 C           2.6855   -2.7123   -0.1960 C.ar    1  UNL1        0.1992
     14 N           3.5255   -3.7911   -0.2624 N.ar    1  UNL1       -0.2152
     15 C           4.7272   -3.2709   -0.4124 C.ar    1  UNL1        0.0973
     16 N           4.6994   -1.9007   -0.4452 N.ar    1  UNL1       -0.3279
     17 C           3.3990   -1.5219   -0.3076 C.ar    1  UNL1        0.1791
     18 N           2.8770   -0.2784   -0.2807 N.ar    1  UNL1       -0.2052
     19 C           1.5375   -0.3330   -0.1292 C.ar    1  UNL1        0.1795
     20 N           0.6436    0.6914   -0.0547 N.ar    1  UNL1       -0.3214
     21 H          -3.4525    3.9620    0.0751 H       1  UNL1        0.0631
     22 H          -5.4179    2.5852    0.6507 H       1  UNL1        0.0618
     23 H          -5.1639    0.1348    0.9595 H       1  UNL1        0.0618
     24 H          -2.9679   -0.9277    0.6990 H       1  UNL1        0.0625
     25 H           5.6491   -3.8311   -0.5024 H       1  UNL1        0.1028
     26 H           5.4859   -1.2778   -0.5513 H       1  UNL1        0.1683
     27 H           0.9041    1.6654   -0.1073 H       1  UNL1        0.1689
@<TRIPOS>BOND
     1     1     2    3
     2     2     3    1
     3     3     4   ar
     4     4     5   ar
     5     5     6   ar
     6     6     7   ar
     7     7     8   ar
     8     8     9    1
     9     9    10   ar
    10    10    11   ar
    11    11    12   ar
    12    12    13   ar
    13    13    14   ar
    14    14    15   ar
    15    15    16   ar
    16    16    17   ar
    17    17    18   ar
    18    18    19   ar
    19    19    20   ar
    20     8     3   ar
    21    20     9   ar
    22    19    11   ar
    23    17    13   ar
    24     4    21    1
    25     5    22    1
    26     6    23    1
    27     7    24    1
    28    15    25    1
    29    16    26    1
    30    20    27    1
