@<TRIPOS>MOLECULE
*****
 26 27 0 0 0
SMALL
GASTEIGER

@<TRIPOS>ATOM
      1 N           3.0808    2.6031    2.3376 N.1     1  UNL1       -0.1909
      2 C           2.7968    1.6465    1.7445 C.1     1  UNL1        0.0995
      3 C           2.4656    0.4513    1.0191 C.ar    1  UNL1        0.0557
      4 C           3.4573   -0.1304    0.2139 C.ar    1  UNL1       -0.0441
      5 C           3.1927   -1.2946   -0.5068 C.ar    1  UNL1       -0.0605
      6 C           1.9361   -1.8864   -0.4282 C.ar    1  UNL1       -0.0614
      7 C           0.9436   -1.3162    0.3702 C.ar    1  UNL1       -0.0566
      8 C           1.1901   -0.1427    1.1061 C.ar    1  UNL1       -0.0198
      9 C           0.0739    0.4457    1.9439 C.3     1  UNL1        0.0260
     10 S          -0.7626    1.8380    1.1197 S.3     1  UNL1       -0.1012
     11 C          -1.8045    0.9709   -0.0363 C.ar    1  UNL1        0.0972
     12 C          -2.0984    1.5709   -1.2556 C.ar    1  UNL1       -0.0298
     13 C          -2.9421    0.9090   -2.1441 C.ar    1  UNL1       -0.0578
     14 C          -3.4744   -0.3224   -1.7853 C.ar    1  UNL1       -0.0435
     15 C          -3.1383   -0.8416   -0.5469 C.ar    1  UNL1        0.0288
     16 N          -2.3176   -0.2247    0.3321 N.ar    1  UNL1       -0.2488
     17 H           4.4448    0.3233    0.1439 H       1  UNL1        0.0630
     18 H           3.9658   -1.7383   -1.1293 H       1  UNL1        0.0618
     19 H           1.7243   -2.7925   -0.9909 H       1  UNL1        0.0618
     20 H          -0.0355   -1.7919    0.4125 H       1  UNL1        0.0621
     21 H           0.4872    0.8145    2.8898 H       1  UNL1        0.0429
     22 H          -0.6451   -0.3269    2.2383 H       1  UNL1        0.0429
     23 H          -1.6820    2.5385   -1.5164 H       1  UNL1        0.0644
     24 H          -3.1850    1.3559   -3.1040 H       1  UNL1        0.0619
     25 H          -4.1389   -0.8615   -2.4512 H       1  UNL1        0.0633
     26 H          -3.5347   -1.7977   -0.2166 H       1  UNL1        0.0830
@<TRIPOS>BOND
     1     1     2    3
     2     2     3    1
     3     3     4   ar
     4     4     5   ar
     5     5     6   ar
     6     6     7   ar
     7     7     8   ar
     8     8     9    1
     9     9    10    1
    10    10    11    1
    11    11    12   ar
    12    12    13   ar
    13    13    14   ar
    14    14    15   ar
    15    15    16   ar
    16     8     3   ar
    17    16    11   ar
    18     4    17    1
    19     5    18    1
    20     6    19    1
    21     7    20    1
    22     9    21    1
    23     9    22    1
    24    12    23    1
    25    13    24    1
    26    14    25    1
    27    15    26    1
