@<TRIPOS>MOLECULE
*****
 28 29 0 0 0
SMALL
GASTEIGER

@<TRIPOS>ATOM
      1 N           0.9118   -1.5095   -2.8657 N.1     1  UNL1       -0.1908
      2 C           1.4523   -1.0634   -1.9393 C.1     1  UNL1        0.1010
      3 C           2.1539   -0.5377   -0.8016 C.ar    1  UNL1        0.0728
      4 C           3.4003   -1.0938   -0.4728 C.ar    1  UNL1       -0.0425
      5 C           4.1417   -0.5858    0.5934 C.ar    1  UNL1       -0.0604
      6 C           3.6447    0.4815    1.3355 C.ar    1  UNL1       -0.0599
      7 C           2.4053    1.0401    1.0148 C.ar    1  UNL1       -0.0393
      8 C           1.6436    0.5442   -0.0563 C.ar    1  UNL1        0.0487
      9 N           0.3722    1.1119   -0.2964 N.pl3   1  UNL1       -0.3167
     10 C          -0.8582    0.4813   -0.1319 C.2     1  UNL1        0.0114
     11 C          -1.0476   -0.7641    0.3429 C.2     1  UNL1       -0.0022
     12 C          -2.4005   -1.3438    0.5289 C.2     1  UNL1        0.1575
     13 O          -2.5115   -2.4580    1.0369 O.2     1  UNL1       -0.2926
     14 C          -3.6056   -0.5117    0.1641 C.3     1  UNL1        0.0103
     15 C          -3.2678    0.4931   -0.9229 C.3     1  UNL1       -0.0409
     16 C          -2.0521    1.3298   -0.5374 C.3     1  UNL1       -0.0140
     17 H           3.8014   -1.9241   -1.0520 H       1  UNL1        0.0631
     18 H           5.1060   -1.0221    0.8437 H       1  UNL1        0.0618
     19 H           4.2182    0.8764    2.1711 H       1  UNL1        0.0618
     20 H           2.0270    1.8594    1.6219 H       1  UNL1        0.0636
     21 H           0.3346    2.1135   -0.1154 H       1  UNL1        0.1519
     22 H          -0.2363   -1.4077    0.6597 H       1  UNL1        0.0668
     23 H          -4.3980   -1.1790   -0.1912 H       1  UNL1        0.0345
     24 H          -3.9567   -0.0039    1.0691 H       1  UNL1        0.0345
     25 H          -4.1273    1.1470   -1.1086 H       1  UNL1        0.0273
     26 H          -3.0603   -0.0375   -1.8614 H       1  UNL1        0.0273
     27 H          -1.7868    1.9594   -1.3962 H       1  UNL1        0.0326
     28 H          -2.3042    2.0045    0.2903 H       1  UNL1        0.0326
@<TRIPOS>BOND
     1     1     2    3
     2     2     3    1
     3     3     4   ar
     4     4     5   ar
     5     5     6   ar
     6     6     7   ar
     7     7     8   ar
     8     8     9    1
     9     9    10    1
    10    10    11    2
    11    11    12    1
    12    12    13    2
    13    12    14    1
    14    14    15    1
    15    15    16    1
    16     8     3   ar
    17    16    10    1
    18     4    17    1
    19     5    18    1
    20     6    19    1
    21     7    20    1
    22     9    21    1
    23    11    22    1
    24    14    23    1
    25    14    24    1
    26    15    25    1
    27    15    26    1
    28    16    27    1
    29    16    28    1
