@<TRIPOS>MOLECULE
*****
 36 38 0 0 0
SMALL
GASTEIGER

@<TRIPOS>ATOM
      1 N          -5.7754   -2.4151    2.4272 N.1     1  UNL1       -0.1908
      2 C          -4.8779   -1.7777    2.0569 C.1     1  UNL1        0.1013
      3 C          -3.7744   -0.9851    1.6118 C.ar    1  UNL1        0.0769
      4 C          -2.4607   -1.1853    1.9738 C.ar    1  UNL1        0.0236
      5 N          -1.6999   -0.2293    1.3477 N.ar    1  UNL1       -0.3365
      6 C          -0.2603   -0.0971    1.5111 C.3     1  UNL1        0.0995
      7 C           0.4945   -0.8873    0.4625 C.2     1  UNL1        0.2331
      8 O           0.5528   -2.1149    0.4837 O.2     1  UNL1       -0.2738
      9 N           1.1091   -0.1259   -0.5116 N.am    1  UNL1       -0.3097
     10 C           1.9404   -0.7311   -1.5300 C.3     1  UNL1        0.0383
     11 C           3.3908   -0.6410   -1.1561 C.ar    1  UNL1       -0.0122
     12 C           4.2071    0.3994   -1.6105 C.ar    1  UNL1       -0.0542
     13 C           5.5418    0.4510   -1.2175 C.ar    1  UNL1       -0.0433
     14 C           6.0168   -0.5389   -0.3733 C.ar    1  UNL1        0.0276
     15 N           5.2576   -1.5521    0.0941 N.ar    1  UNL1       -0.2629
     16 C           3.9654   -1.5820   -0.3063 C.ar    1  UNL1        0.0322
     17 C          -2.5047    0.5960    0.5845 C.ar    1  UNL1        0.0508
     18 C          -2.1976    1.7036   -0.2239 C.ar    1  UNL1       -0.0376
     19 C          -3.2459    2.3459   -0.8910 C.ar    1  UNL1       -0.0598
     20 C          -4.5579    1.9038   -0.7580 C.ar    1  UNL1       -0.0610
     21 C          -4.8574    0.8021    0.0503 C.ar    1  UNL1       -0.0513
     22 C          -3.8193    0.1341    0.7343 C.ar    1  UNL1        0.0172
     23 H          -2.0079   -1.9347    2.6122 H       1  UNL1        0.0822
     24 H           0.0120   -0.4741    2.5033 H       1  UNL1        0.0588
     25 H          -0.0025    0.9659    1.4843 H       1  UNL1        0.0588
     26 H           1.1667    0.8780   -0.4037 H       1  UNL1        0.1491
     27 H           1.6516   -1.7747   -1.6998 H       1  UNL1        0.0512
     28 H           1.7539   -0.1892   -2.4638 H       1  UNL1        0.0512
     29 H           3.8133    1.1651   -2.2734 H       1  UNL1        0.0622
     30 H           6.1974    1.2423   -1.5632 H       1  UNL1        0.0633
     31 H           7.0511   -0.5437   -0.0399 H       1  UNL1        0.0829
     32 H           3.3822   -2.4108    0.0925 H       1  UNL1        0.0833
     33 H          -1.1820    2.0638   -0.3417 H       1  UNL1        0.0638
     34 H          -3.0329    3.2043   -1.5252 H       1  UNL1        0.0618
     35 H          -5.3603    2.4157   -1.2861 H       1  UNL1        0.0618
     36 H          -5.8876    0.4664    0.1450 H       1  UNL1        0.0624
@<TRIPOS>BOND
     1     1     2    3
     2     2     3    1
     3     3     4   ar
     4     4     5   ar
     5     5     6    1
     6     6     7    1
     7     7     8    2
     8     7     9   am
     9     9    10    1
    10    10    11    1
    11    11    12   ar
    12    12    13   ar
    13    13    14   ar
    14    14    15   ar
    15    15    16   ar
    16     5    17   ar
    17    17    18   ar
    18    18    19   ar
    19    19    20   ar
    20    20    21   ar
    21    21    22   ar
    22    22     3   ar
    23    16    11   ar
    24    22    17   ar
    25     4    23    1
    26     6    24    1
    27     6    25    1
    28     9    26    1
    29    10    27    1
    30    10    28    1
    31    12    29    1
    32    13    30    1
    33    14    31    1
    34    16    32    1
    35    18    33    1
    36    19    34    1
    37    20    35    1
    38    21    36    1
