@<TRIPOS>MOLECULE
*****
 44 50 0 0 0
SMALL
GASTEIGER

@<TRIPOS>ATOM
      1 SI         -5.2618   -0.2164    0.8485 Si      1  UNL1        0.0000
      2 C          -5.5806   -0.7355    2.6001 C.2     1  UNL1        0.0000
      3 C          -4.4443   -0.9454    3.2800 C.2     1  UNL1        0.0000
      4 C          -3.2192   -0.7189    2.4913 C.ar    1  UNL1        0.0000
      5 C          -1.9632   -0.8901    3.0378 C.ar    1  UNL1        0.0000
      6 C          -0.8571   -0.6588    2.2352 C.ar    1  UNL1        0.0000
      7 C          -0.9987   -0.2548    0.8810 C.ar    1  UNL1        0.0000
      8 C           0.2004   -0.0478    0.1571 C.ar    1  UNL1        0.0000
      9 N           1.5202   -0.1718    0.5423 N.ar    1  UNL1        0.0000
     10 C           2.3930    0.1258   -0.4787 C.ar    1  UNL1        0.0000
     11 C           1.5930    0.4524   -1.5567 C.ar    1  UNL1        0.0000
     12 C           0.2162    0.3480   -1.1734 C.ar    1  UNL1        0.0000
     13 C          -1.0201    0.5543   -1.8368 C.ar    1  UNL1        0.0000
     14 C          -0.9601    0.9576   -3.1932 C.ar    1  UNL1        0.0000
     15 C          -2.1170    1.1836   -3.9244 C.ar    1  UNL1        0.0000
     16 C          -3.3410    1.0092   -3.3089 C.ar    1  UNL1        0.0000
     17 C          -3.4037    0.6097   -1.9654 C.ar    1  UNL1        0.0000
     18 C          -2.2605    0.3609   -1.1578 C.ar    1  UNL1        0.0000
     19 C          -2.2654   -0.0578    0.2485 C.ar    1  UNL1        0.0000
     20 C          -3.3807   -0.3110    1.1247 C.ar    1  UNL1        0.0000
     21 C           3.8485    0.0714   -0.3309 C.ar    1  UNL1        0.0000
     22 C           4.7376    0.3795   -1.3863 C.ar    1  UNL1        0.0000
     23 C           6.1480    0.3339   -1.2670 C.ar    1  UNL1        0.0000
     24 C           6.8056   -0.0244   -0.0804 C.ar    1  UNL1        0.0000
     25 C           5.9760   -0.3460    1.0190 C.ar    1  UNL1        0.0000
     26 N           6.4074   -0.7115    2.2355 N.ar    1  UNL1        0.0000
     27 S           5.0552   -0.9762    3.1563 S.2     1  UNL1        0.0000
     28 N           3.8564   -0.6405    2.0584 N.ar    1  UNL1        0.0000
     29 C           4.4671   -0.3009    0.9040 C.ar    1  UNL1        0.0000
     30 H          -5.7456   -1.2218   -0.1309 H       1  UNL1        0.0000
     31 H          -5.7298    1.1667    0.5798 H       1  UNL1        0.0000
     32 H          -6.5824   -0.8436    2.9858 H       1  UNL1        0.0000
     33 H          -4.4013   -1.2541    4.3163 H       1  UNL1        0.0000
     34 H          -1.8335   -1.1983    4.0704 H       1  UNL1        0.0000
     35 H           0.1199   -0.8004    2.6880 H       1  UNL1        0.0000
     36 H           1.8312   -0.4486    1.4644 H       1  UNL1        0.0000
     37 H           1.9541    0.7407   -2.5342 H       1  UNL1        0.0000
     38 H          -0.0069    1.1002   -3.6949 H       1  UNL1        0.0000
     39 H          -2.0601    1.4926   -4.9638 H       1  UNL1        0.0000
     40 H          -4.2596    1.1812   -3.8644 H       1  UNL1        0.0000
     41 H          -4.4044    0.5017   -1.5781 H       1  UNL1        0.0000
     42 H           4.3305    0.6709   -2.3548 H       1  UNL1        0.0000
     43 H           6.7507    0.5895   -2.1394 H       1  UNL1        0.0000
     44 H           7.8859   -0.0549   -0.0038 H       1  UNL1        0.0000
@<TRIPOS>BOND
     1     1     2    1
     2     2     3    2
     3     3     4    1
     4     4     5   ar
     5     5     6   ar
     6     6     7   ar
     7     7     8   ar
     8     8     9   ar
     9     9    10   ar
    10    10    11   ar
    11    11    12   ar
    12    12    13   ar
    13    13    14   ar
    14    14    15   ar
    15    15    16   ar
    16    16    17   ar
    17    17    18   ar
    18    18    19   ar
    19    19    20   ar
    20    10    21    1
    21    21    22   ar
    22    22    23   ar
    23    23    24   ar
    24    24    25   ar
    25    25    26   ar
    26    26    27   ar
    27    27    28   ar
    28    28    29   ar
    29    20     1    1
    30    29    21   ar
    31    20     4   ar
    32    29    25   ar
    33    19     7   ar
    34    12     8   ar
    35    18    13   ar
    36     1    30    1
    37     1    31    1
    38     2    32    1
    39     3    33    1
    40     5    34    1
    41     6    35    1
    42     9    36    1
    43    11    37    1
    44    14    38    1
    45    15    39    1
    46    16    40    1
    47    17    41    1
    48    22    42    1
    49    23    43    1
    50    24    44    1
