@<TRIPOS>MOLECULE
*****
 37 40 0 0 0
SMALL
GASTEIGER

@<TRIPOS>ATOM
      1 N           2.8619   -1.4140   -3.2521 N.1     1  UNL1       -0.1908
      2 C           3.2836   -0.9643   -2.2689 C.1     1  UNL1        0.1028
      3 C           3.8438   -0.4359   -1.0707 C.ar    1  UNL1        0.0957
      4 C           5.2147   -0.3421   -0.9372 C.ar    1  UNL1        0.0487
      5 N           5.8339    0.1672    0.1472 N.ar    1  UNL1       -0.2424
      6 C           5.0267    0.6021    1.1228 C.ar    1  UNL1        0.1166
      7 N           3.6870    0.5663    1.1018 N.ar    1  UNL1       -0.2341
      8 C           3.0970    0.0319   -0.0001 C.ar    1  UNL1        0.0915
      9 C           1.6231    0.0217    0.0537 C.ar    1  UNL1        0.0023
     10 C           0.9168    1.1983    0.3414 C.ar    1  UNL1       -0.0476
     11 C          -0.4888    1.2245    0.3781 C.ar    1  UNL1       -0.0254
     12 C          -1.2330    0.0504    0.1627 C.ar    1  UNL1        0.0361
     13 C          -0.5291   -1.1406   -0.0948 C.ar    1  UNL1       -0.0254
     14 C           0.8769   -1.1464   -0.1555 C.ar    1  UNL1       -0.0476
     15 C          -1.2763   -2.4273   -0.3417 C.3     1  UNL1       -0.0245
     16 C          -2.6624   -2.3862    0.2851 C.3     1  UNL1       -0.0332
     17 C          -3.3842   -1.1217   -0.1531 C.3     1  UNL1        0.0125
     18 N          -2.6198    0.0657    0.2066 N.pl3   1  UNL1       -0.3294
     19 C          -3.3345    1.2678    0.6164 C.3     1  UNL1        0.0125
     20 C          -2.6113    2.5196    0.1451 C.3     1  UNL1       -0.0332
     21 C          -1.1889    2.5235    0.6865 C.3     1  UNL1       -0.0245
     22 H           5.8864   -0.6798   -1.7239 H       1  UNL1        0.0844
     23 H           5.4963    1.0205    2.0065 H       1  UNL1        0.1047
     24 H           1.4692    2.1174    0.5337 H       1  UNL1        0.0627
     25 H           1.3829   -2.0902   -0.3514 H       1  UNL1        0.0627
     26 H          -1.3557   -2.5827   -1.4246 H       1  UNL1        0.0314
     27 H          -0.7225   -3.2747    0.0791 H       1  UNL1        0.0314
     28 H          -2.5771   -2.4025    1.3795 H       1  UNL1        0.0283
     29 H          -3.2346   -3.2726   -0.0100 H       1  UNL1        0.0283
     30 H          -4.3722   -1.0972    0.3218 H       1  UNL1        0.0464
     31 H          -3.5483   -1.1307   -1.2376 H       1  UNL1        0.0464
     32 H          -4.3486    1.2686    0.1995 H       1  UNL1        0.0464
     33 H          -3.4354    1.2727    1.7087 H       1  UNL1        0.0464
     34 H          -2.5924    2.5441   -0.9523 H       1  UNL1        0.0283
     35 H          -3.1438    3.4159    0.4815 H       1  UNL1        0.0283
     36 H          -0.6431    3.3641    0.2420 H       1  UNL1        0.0314
     37 H          -1.1983    2.6666    1.7738 H       1  UNL1        0.0314
@<TRIPOS>BOND
     1     1     2    3
     2     2     3    1
     3     3     4   ar
     4     4     5   ar
     5     5     6   ar
     6     6     7   ar
     7     7     8   ar
     8     8     9    1
     9     9    10   ar
    10    10    11   ar
    11    11    12   ar
    12    12    13   ar
    13    13    14   ar
    14    13    15    1
    15    15    16    1
    16    16    17    1
    17    17    18    1
    18    18    19    1
    19    19    20    1
    20    20    21    1
    21     8     3   ar
    22    14     9   ar
    23    21    11    1
    24    18    12    1
    25     4    22    1
    26     6    23    1
    27    10    24    1
    28    14    25    1
    29    15    26    1
    30    15    27    1
    31    16    28    1
    32    16    29    1
    33    17    30    1
    34    17    31    1
    35    19    32    1
    36    19    33    1
    37    20    34    1
    38    20    35    1
    39    21    36    1
    40    21    37    1
