@<TRIPOS>MOLECULE
*****
 28 31 0 0 0
SMALL
GASTEIGER

@<TRIPOS>ATOM
      1 N          -2.1503   -2.2537    3.3860 N.1     1  UNL1       -0.1908
      2 C          -2.6244   -1.5598    2.5854 C.1     1  UNL1        0.1029
      3 C          -3.2499   -0.7182    1.6253 C.ar    1  UNL1        0.0971
      4 C          -4.6183   -0.5368    1.6812 C.ar    1  UNL1        0.0488
      5 N          -5.3166    0.2369    0.8248 N.ar    1  UNL1       -0.2424
      6 C          -4.5960    0.8474   -0.1219 C.ar    1  UNL1        0.1167
      7 N          -3.2676    0.7487   -0.2766 N.ar    1  UNL1       -0.2327
      8 C          -2.6018   -0.0417    0.6084 C.ar    1  UNL1        0.1076
      9 C          -1.1584   -0.0653    0.3316 C.ar    1  UNL1        0.0673
     10 C          -0.0704   -0.6943    0.9172 C.ar    1  UNL1       -0.0271
     11 C           1.1092   -0.3373    0.2020 C.ar    1  UNL1        0.0011
     12 C           2.4715   -0.6614    0.3329 C.ar    1  UNL1       -0.0418
     13 C           3.4151   -0.1308   -0.5575 C.ar    1  UNL1        0.0208
     14 C           4.8203   -0.2241   -0.7356 C.ar    1  UNL1       -0.0161
     15 C           5.1276    0.5625   -1.8231 C.ar    1  UNL1        0.0931
     16 O           4.0060    1.1380   -2.3320 O.2     1  UNL1       -0.4629
     17 C           2.9666    0.7161   -1.5624 C.ar    1  UNL1        0.1368
     18 C           1.6328    1.0579   -1.7223 C.ar    1  UNL1        0.0051
     19 C           0.7158    0.5168   -0.8240 C.ar    1  UNL1        0.0505
     20 N          -0.6428    0.6637   -0.7255 N.ar    1  UNL1       -0.3528
     21 H          -5.2242   -1.0240    2.4431 H       1  UNL1        0.0844
     22 H          -5.1323    1.4763   -0.8246 H       1  UNL1        0.1047
     23 H          -0.0816   -1.3528    1.7752 H       1  UNL1        0.0645
     24 H           2.7927   -1.3270    1.1294 H       1  UNL1        0.0631
     25 H           5.5219   -0.7943   -0.1442 H       1  UNL1        0.0655
     26 H           6.0481    0.8056   -2.3351 H       1  UNL1        0.1029
     27 H           1.3263    1.7234   -2.5218 H       1  UNL1        0.0675
     28 H          -1.2193    1.2280   -1.3358 H       1  UNL1        0.1660
@<TRIPOS>BOND
     1     1     2    3
     2     2     3    1
     3     3     4   ar
     4     4     5   ar
     5     5     6   ar
     6     6     7   ar
     7     7     8   ar
     8     8     9    1
     9     9    10   ar
    10    10    11   ar
    11    11    12   ar
    12    12    13   ar
    13    13    14   ar
    14    14    15   ar
    15    15    16   ar
    16    16    17   ar
    17    17    18   ar
    18    18    19   ar
    19    19    20   ar
    20     8     3   ar
    21    20     9   ar
    22    19    11   ar
    23    17    13   ar
    24     4    21    1
    25     6    22    1
    26    10    23    1
    27    12    24    1
    28    14    25    1
    29    15    26    1
    30    18    27    1
    31    20    28    1
