@<TRIPOS>MOLECULE
*****
 27 30 0 0 0
SMALL
GASTEIGER

@<TRIPOS>ATOM
      1 N          -2.6317   -2.8966   -2.1704 N.1     1  UNL1       -0.1908
      2 C          -2.9982   -2.0379   -1.4815 C.1     1  UNL1        0.1029
      3 C          -3.4636   -1.0004   -0.6274 C.ar    1  UNL1        0.0987
      4 C          -4.8183   -0.7686   -0.5032 C.ar    1  UNL1        0.0488
      5 N          -5.3491    0.2014    0.2688 N.ar    1  UNL1       -0.2424
      6 C          -4.4698    0.9628    0.9321 C.ar    1  UNL1        0.1168
      7 N          -3.1387    0.8292    0.8892 N.ar    1  UNL1       -0.2310
      8 C          -2.6432   -0.1600    0.1025 C.ar    1  UNL1        0.1265
      9 C          -1.1821   -0.2470    0.1161 C.ar    1  UNL1        0.1557
     10 C          -0.2561   -1.2668   -0.0252 C.ar    1  UNL1       -0.0064
     11 C           1.0318   -0.6785    0.0840 C.ar    1  UNL1        0.0243
     12 C           2.3568   -1.1300    0.0362 C.ar    1  UNL1       -0.0080
     13 C           3.3783   -0.1995    0.1961 C.ar    1  UNL1        0.1356
     14 O           4.7129   -0.4631    0.1773 O.2     1  UNL1       -0.4629
     15 C           5.3503    0.7219    0.3704 C.ar    1  UNL1        0.0931
     16 C           4.4415    1.7461    0.5136 C.ar    1  UNL1       -0.0160
     17 C           3.1549    1.1582    0.4018 C.ar    1  UNL1        0.0236
     18 C           1.8293    1.6080    0.4498 C.ar    1  UNL1       -0.0080
     19 C           0.8091    0.6766    0.2895 C.ar    1  UNL1        0.1365
     20 O          -0.5228    0.9395    0.3084 O.2     1  UNL1       -0.4532
     21 H          -5.5503   -1.3706   -1.0382 H       1  UNL1        0.0844
     22 H          -4.8686    1.7538    1.5582 H       1  UNL1        0.1047
     23 H          -0.4659   -2.3162   -0.1792 H       1  UNL1        0.0662
     24 H           2.5914   -2.1776   -0.1218 H       1  UNL1        0.0661
     25 H           6.4304    0.6726    0.3803 H       1  UNL1        0.1029
     26 H           4.6778    2.7876    0.6782 H       1  UNL1        0.0655
     27 H           1.5940    2.6552    0.6085 H       1  UNL1        0.0661
@<TRIPOS>BOND
     1     1     2    3
     2     2     3    1
     3     3     4   ar
     4     4     5   ar
     5     5     6   ar
     6     6     7   ar
     7     7     8   ar
     8     8     9    1
     9     9    10   ar
    10    10    11   ar
    11    11    12   ar
    12    12    13   ar
    13    13    14   ar
    14    14    15   ar
    15    15    16   ar
    16    16    17   ar
    17    17    18   ar
    18    18    19   ar
    19    19    20   ar
    20     8     3   ar
    21    20     9   ar
    22    19    11   ar
    23    17    13   ar
    24     4    21    1
    25     6    22    1
    26    10    23    1
    27    12    24    1
    28    15    25    1
    29    16    26    1
    30    18    27    1
