@<TRIPOS>MOLECULE
*****
 25 27 0 0 0
SMALL
GASTEIGER

@<TRIPOS>ATOM
      1 N           1.2737    0.5860    3.5519 N.1     1  UNL1       -0.1908
      2 C           1.8659    0.1857    2.6378 C.1     1  UNL1        0.1029
      3 C           2.5261   -0.2973    1.4785 C.ar    1  UNL1        0.0971
      4 C           3.8622   -0.6409    1.5500 C.ar    1  UNL1        0.0488
      5 N           4.5780   -1.1081    0.5084 N.ar    1  UNL1       -0.2424
      6 C           3.9075   -1.2283   -0.6431 C.ar    1  UNL1        0.1167
      7 N           2.6152   -0.9261   -0.8272 N.ar    1  UNL1       -0.2327
      8 C           1.9239   -0.4581    0.2425 C.ar    1  UNL1        0.1076
      9 C           0.5166   -0.1663   -0.0999 C.ar    1  UNL1        0.0673
     10 C          -0.1197   -0.3157   -1.3278 C.ar    1  UNL1       -0.0271
     11 C          -1.4756    0.0832   -1.2085 C.ar    1  UNL1        0.0003
     12 C          -2.5648    0.1454   -2.0978 C.ar    1  UNL1       -0.0526
     13 C          -3.8022    0.6035   -1.6307 C.ar    1  UNL1       -0.0611
     14 C          -3.9596    0.9945   -0.3025 C.ar    1  UNL1       -0.0598
     15 C          -2.8899    0.9401    0.5964 C.ar    1  UNL1       -0.0378
     16 C          -1.6608    0.4793    0.1103 C.ar    1  UNL1        0.0469
     17 N          -0.4541    0.3213    0.7557 N.ar    1  UNL1       -0.3529
     18 H           4.4242   -0.5501    2.4775 H       1  UNL1        0.0844
     19 H           4.4553   -1.6020   -1.5015 H       1  UNL1        0.1047
     20 H           0.3567   -0.6814   -2.2294 H       1  UNL1        0.0645
     21 H          -2.4486   -0.1578   -3.1339 H       1  UNL1        0.0624
     22 H          -4.6474    0.6538   -2.3127 H       1  UNL1        0.0618
     23 H          -4.9292    1.3476    0.0416 H       1  UNL1        0.0618
     24 H          -3.0155    1.2453    1.6303 H       1  UNL1        0.0638
     25 H          -0.3378    0.5463    1.7342 H       1  UNL1        0.1659
@<TRIPOS>BOND
     1     1     2    3
     2     2     3    1
     3     3     4   ar
     4     4     5   ar
     5     5     6   ar
     6     6     7   ar
     7     7     8   ar
     8     8     9    1
     9     9    10   ar
    10    10    11   ar
    11    11    12   ar
    12    12    13   ar
    13    13    14   ar
    14    14    15   ar
    15    15    16   ar
    16    16    17   ar
    17     8     3   ar
    18    17     9   ar
    19    16    11   ar
    20     4    18    1
    21     6    19    1
    22    10    20    1
    23    12    21    1
    24    13    22    1
    25    14    23    1
    26    15    24    1
    27    17    25    1
