@<TRIPOS>MOLECULE
*****
 24 26 0 0 0
SMALL
GASTEIGER

@<TRIPOS>ATOM
      1 N          -2.9216    1.0026   -2.3749 N.1     1  UNL1       -0.1908
      2 C          -2.7435    0.0541   -1.7306 C.1     1  UNL1        0.1028
      3 C          -2.5732   -1.1237   -0.9495 C.ar    1  UNL1        0.0962
      4 C          -3.5392   -2.1079   -0.9669 C.ar    1  UNL1        0.0488
      5 N          -3.4812   -3.2344   -0.2258 N.ar    1  UNL1       -0.2424
      6 C          -2.4079   -3.3572    0.5661 C.ar    1  UNL1        0.1167
      7 N          -1.4116   -2.4683    0.6710 N.ar    1  UNL1       -0.2336
      8 C          -1.5006   -1.3617   -0.1092 C.ar    1  UNL1        0.0981
      9 C          -0.3618   -0.4557    0.0712 C.ar    1  UNL1        0.0400
     10 C           0.1394    0.0566    1.2511 C.ar    1  UNL1       -0.0377
     11 C           1.2865    0.8981    1.0670 C.ar    1  UNL1       -0.0102
     12 C           2.0647    1.6139    2.0081 C.ar    1  UNL1       -0.0535
     13 C           3.1552    2.3808    1.5870 C.ar    1  UNL1       -0.0611
     14 C           3.4874    2.4460    0.2410 C.ar    1  UNL1       -0.0607
     15 C           2.7402    1.7467   -0.7096 C.ar    1  UNL1       -0.0474
     16 C           1.6423    0.9758   -0.2806 C.ar    1  UNL1        0.0200
     17 S           0.5928    0.0285   -1.2615 S.2     1  UNL1       -0.0867
     18 H          -4.4270   -2.0226   -1.5906 H       1  UNL1        0.0844
     19 H          -2.3404   -4.2521    1.1755 H       1  UNL1        0.1047
     20 H          -0.3002   -0.1594    2.2180 H       1  UNL1        0.0635
     21 H           1.8146    1.5700    3.0652 H       1  UNL1        0.0624
     22 H           3.7444    2.9277    2.3191 H       1  UNL1        0.0618
     23 H           4.3370    3.0448   -0.0790 H       1  UNL1        0.0618
     24 H           3.0038    1.7974   -1.7623 H       1  UNL1        0.0629
@<TRIPOS>BOND
     1     1     2    3
     2     2     3    1
     3     3     4   ar
     4     4     5   ar
     5     5     6   ar
     6     6     7   ar
     7     7     8   ar
     8     8     9    1
     9     9    10   ar
    10    10    11   ar
    11    11    12   ar
    12    12    13   ar
    13    13    14   ar
    14    14    15   ar
    15    15    16   ar
    16    16    17   ar
    17     8     3   ar
    18    17     9   ar
    19    16    11   ar
    20     4    18    1
    21     6    19    1
    22    10    20    1
    23    12    21    1
    24    13    22    1
    25    14    23    1
    26    15    24    1
