@<TRIPOS>MOLECULE
*****
 26 29 0 0 0
SMALL
GASTEIGER

@<TRIPOS>ATOM
      1 N          -1.3183   -1.4902   -3.9075 N.1     1  UNL1       -0.1908
      2 C          -1.8515   -0.7591   -3.1810 C.1     1  UNL1        0.1029
      3 C          -2.5383    0.1399   -2.3202 C.ar    1  UNL1        0.0971
      4 C          -3.7635    0.6429   -2.7129 C.ar    1  UNL1        0.0488
      5 N          -4.5013    1.5002   -1.9781 N.ar    1  UNL1       -0.2424
      6 C          -3.9739    1.8581   -0.8026 C.ar    1  UNL1        0.1167
      7 N          -2.7971    1.4372   -0.3161 N.ar    1  UNL1       -0.2327
      8 C          -2.0851    0.5740   -1.0882 C.ar    1  UNL1        0.1077
      9 C          -0.8215    0.1938   -0.4401 C.ar    1  UNL1        0.0699
     10 C           0.2385   -0.6367   -0.7929 C.ar    1  UNL1       -0.0072
     11 C           1.1928   -0.6071    0.2514 C.ar    1  UNL1        0.1090
     12 N           2.3894   -1.2363    0.3934 N.ar    1  UNL1       -0.2387
     13 C           3.0444   -0.9624    1.5545 C.ar    1  UNL1        0.1293
     14 C           4.2819   -1.4065    2.0633 C.ar    1  UNL1        0.0039
     15 C           4.4274   -0.7930    3.2895 C.ar    1  UNL1        0.0966
     16 O           3.3569    0.0026    3.5700 O.2     1  UNL1       -0.4439
     17 C           2.5089   -0.0991    2.5100 C.ar    1  UNL1        0.2478
     18 N           1.3249    0.5370    2.3930 N.ar    1  UNL1       -0.1914
     19 C           0.7050    0.2429    1.2332 C.ar    1  UNL1        0.1609
     20 N          -0.4983    0.7140    0.8072 N.ar    1  UNL1       -0.3365
     21 H          -4.2120    0.3656   -3.6653 H       1  UNL1        0.0844
     22 H          -4.5468    2.5472   -0.1910 H       1  UNL1        0.1047
     23 H           0.3495   -1.2187   -1.6970 H       1  UNL1        0.0661
     24 H           4.9770   -2.0867    1.5946 H       1  UNL1        0.0671
     25 H           5.1967   -0.8159    4.0494 H       1  UNL1        0.1031
     26 H          -1.0857    1.3562    1.3215 H       1  UNL1        0.1674
@<TRIPOS>BOND
     1     1     2    3
     2     2     3    1
     3     3     4   ar
     4     4     5   ar
     5     5     6   ar
     6     6     7   ar
     7     7     8   ar
     8     8     9    1
     9     9    10   ar
    10    10    11   ar
    11    11    12   ar
    12    12    13   ar
    13    13    14   ar
    14    14    15   ar
    15    15    16   ar
    16    16    17   ar
    17    17    18   ar
    18    18    19   ar
    19    19    20   ar
    20     8     3   ar
    21    20     9   ar
    22    19    11   ar
    23    17    13   ar
    24     4    21    1
    25     6    22    1
    26    10    23    1
    27    14    24    1
    28    15    25    1
    29    20    26    1
