@<TRIPOS>MOLECULE
*****
 23 25 0 0 0
SMALL
GASTEIGER

@<TRIPOS>ATOM
      1 N           0.1883    1.6824    3.2131 N.1     1  UNL1       -0.1908
      2 C          -0.5860    1.5205    2.3642 C.1     1  UNL1        0.1028
      3 C          -1.5597    1.3168    1.3452 C.ar    1  UNL1        0.0957
      4 C          -2.8079    1.8950    1.4564 C.ar    1  UNL1        0.0487
      5 N          -3.7793    1.7717    0.5292 N.ar    1  UNL1       -0.2424
      6 C          -3.4638    1.0427   -0.5487 C.ar    1  UNL1        0.1166
      7 N          -2.2865    0.4385   -0.7645 N.ar    1  UNL1       -0.2341
      8 C          -1.3364    0.5728    0.1964 C.ar    1  UNL1        0.0916
      9 C          -0.0716   -0.1212   -0.1133 C.ar    1  UNL1        0.0039
     10 C           0.4907   -1.0648    0.7718 C.ar    1  UNL1       -0.0504
     11 C           1.6948   -1.7315    0.4975 C.ar    1  UNL1       -0.0341
     12 C           2.3099   -1.4205   -0.7129 C.ar    1  UNL1        0.0858
     13 N           3.4577   -1.8454   -1.3208 N.ar    1  UNL1       -0.2571
     14 N           3.6417   -1.2556   -2.5132 N.ar    1  UNL1       -0.0673
     15 N           2.6186   -0.4332   -2.7119 N.ar    1  UNL1       -0.1296
     16 C           1.7903   -0.5144   -1.6248 C.ar    1  UNL1        0.1131
     17 C           0.5871    0.1423   -1.3334 C.ar    1  UNL1       -0.0232
     18 H          -3.0801    2.5001    2.3188 H       1  UNL1        0.0844
     19 H          -4.2250    0.9312   -1.3136 H       1  UNL1        0.1047
     20 H          -0.0184   -1.3084    1.7047 H       1  UNL1        0.0625
     21 H           2.1134   -2.4507    1.1935 H       1  UNL1        0.0639
     22 H           4.1452   -2.5139   -0.9965 H       1  UNL1        0.1907
     23 H           0.1770    0.8459   -2.0521 H       1  UNL1        0.0646
@<TRIPOS>BOND
     1     1     2    3
     2     2     3    1
     3     3     4   ar
     4     4     5   ar
     5     5     6   ar
     6     6     7   ar
     7     7     8   ar
     8     8     9    1
     9     9    10   ar
    10    10    11   ar
    11    11    12   ar
    12    12    13   ar
    13    13    14   ar
    14    14    15   ar
    15    15    16   ar
    16    16    17   ar
    17     8     3   ar
    18    17     9   ar
    19    16    12   ar
    20     4    18    1
    21     6    19    1
    22    10    20    1
    23    11    21    1
    24    13    22    1
    25    17    23    1
