@<TRIPOS>MOLECULE
*****
 33 36 0 0 0
SMALL
GASTEIGER

@<TRIPOS>ATOM
      1 N          -1.8388    2.9671   -2.4766 N.1     1  UNL1       -0.1908
      2 C          -2.5763    2.5623   -1.6774 C.1     1  UNL1        0.1028
      3 C          -3.4778    2.0961   -0.6787 C.ar    1  UNL1        0.0957
      4 C          -4.6879    2.7333   -0.4913 C.ar    1  UNL1        0.0487
      5 N          -5.6078    2.3492    0.4164 N.ar    1  UNL1       -0.2424
      6 C          -5.2862    1.2766    1.1500 C.ar    1  UNL1        0.1166
      7 N          -4.1454    0.5787    1.0525 N.ar    1  UNL1       -0.2341
      8 C          -3.2347    1.0010    0.1374 C.ar    1  UNL1        0.0916
      9 C          -2.0067    0.1808    0.0945 C.ar    1  UNL1        0.0037
     10 C          -2.0990   -1.2202   -0.0053 C.ar    1  UNL1       -0.0517
     11 C          -0.9557   -2.0218   -0.0337 C.ar    1  UNL1       -0.0483
     12 C           0.3050   -1.4273    0.0353 C.ar    1  UNL1        0.0456
     13 C           1.5308   -2.2644    0.0121 C.ar    1  UNL1        0.1971
     14 O           1.4510   -3.4866   -0.0602 O.2     1  UNL1       -0.2865
     15 C           2.8526   -1.5918    0.0697 C.ar    1  UNL1        0.0456
     16 C           4.0300   -2.3460    0.0289 C.ar    1  UNL1       -0.0489
     17 C           5.2642   -1.7006    0.0877 C.ar    1  UNL1       -0.0610
     18 C           5.3187   -0.3104    0.1936 C.ar    1  UNL1       -0.0598
     19 C           4.1401    0.4409    0.2348 C.ar    1  UNL1       -0.0377
     20 C           2.8954   -0.1909    0.1525 C.ar    1  UNL1        0.0506
     21 N           1.7064    0.5514    0.2532 N.ar    1  UNL1       -0.3539
     22 C           0.4359   -0.0346    0.1220 C.ar    1  UNL1        0.0512
     23 C          -0.7218    0.7535    0.1813 C.ar    1  UNL1       -0.0284
     24 H          -4.9724    3.6004   -1.0840 H       1  UNL1        0.0844
     25 H          -6.0097    0.9424    1.8859 H       1  UNL1        0.1047
     26 H          -3.0765   -1.6998   -0.0510 H       1  UNL1        0.0624
     27 H          -1.0503   -3.1033   -0.1025 H       1  UNL1        0.0625
     28 H           3.9842   -3.4302   -0.0449 H       1  UNL1        0.0625
     29 H           6.1824   -2.2823    0.0582 H       1  UNL1        0.0618
     30 H           6.2826    0.1902    0.2511 H       1  UNL1        0.0618
     31 H           4.2053    1.5210    0.3346 H       1  UNL1        0.0638
     32 H           1.7765    1.5375    0.0318 H       1  UNL1        0.1659
     33 H          -0.6141    1.8282    0.3125 H       1  UNL1        0.0645
@<TRIPOS>BOND
     1     1     2    3
     2     2     3    1
     3     3     4   ar
     4     4     5   ar
     5     5     6   ar
     6     6     7   ar
     7     7     8   ar
     8     8     9    1
     9     9    10   ar
    10    10    11   ar
    11    11    12   ar
    12    12    13   ar
    13    13    14    2
    14    13    15   ar
    15    15    16   ar
    16    16    17   ar
    17    17    18   ar
    18    18    19   ar
    19    19    20   ar
    20    20    21   ar
    21    21    22   ar
    22    22    23   ar
    23     8     3   ar
    24    23     9   ar
    25    22    12   ar
    26    20    15   ar
    27     4    24    1
    28     6    25    1
    29    10    26    1
    30    11    27    1
    31    16    28    1
    32    17    29    1
    33    18    30    1
    34    19    31    1
    35    21    32    1
    36    23    33    1
