@<TRIPOS>MOLECULE
*****
 37 40 0 0 0
SMALL
GASTEIGER

@<TRIPOS>ATOM
      1 N           5.3789    0.4439   -0.5752 N.1     1  UNL1       -0.1908
      2 C           4.6866    1.2772   -0.9911 C.1     1  UNL1        0.1028
      3 C           3.8672    2.3110   -1.5279 C.ar    1  UNL1        0.0957
      4 C           4.4491    3.4547   -2.0368 C.ar    1  UNL1        0.0487
      5 N           3.7534    4.4940   -2.5412 N.ar    1  UNL1       -0.2424
      6 C           2.4211    4.3645   -2.5175 C.ar    1  UNL1        0.1166
      7 N           1.7480    3.3058   -2.0452 N.ar    1  UNL1       -0.2341
      8 C           2.4813    2.2701   -1.5586 C.ar    1  UNL1        0.0915
      9 C           1.6698    1.1417   -1.0640 C.ar    1  UNL1        0.0021
     10 C           1.8741   -0.1712   -1.4952 C.ar    1  UNL1       -0.0508
     11 C           1.0918   -1.2174   -0.9933 C.ar    1  UNL1       -0.0397
     12 C           0.0686   -1.0018   -0.0507 C.ar    1  UNL1        0.0346
     13 C          -0.1772    0.3144    0.3550 C.ar    1  UNL1       -0.0253
     14 C           0.6304    1.3619   -0.1456 C.ar    1  UNL1       -0.0476
     15 C          -1.2501    0.6683    1.3514 C.3     1  UNL1       -0.0219
     16 C          -2.6080    0.0906    0.9758 C.3     1  UNL1       -0.0219
     17 C          -2.7688   -1.3372    1.4266 C.ar    1  UNL1       -0.0259
     18 C          -3.9298   -1.6732    2.1549 C.ar    1  UNL1       -0.0568
     19 C          -4.1581   -2.9756    2.5921 C.ar    1  UNL1       -0.0614
     20 C          -3.2317   -3.9651    2.3022 C.ar    1  UNL1       -0.0600
     21 C          -2.0865   -3.6452    1.5708 C.ar    1  UNL1       -0.0403
     22 C          -1.8353   -2.3350    1.1120 C.ar    1  UNL1        0.0345
     23 N          -0.6516   -2.1292    0.3802 N.pl3   1  UNL1       -0.3141
     24 H           5.5295    3.5831   -2.0544 H       1  UNL1        0.0844
     25 H           1.8350    5.1868   -2.9136 H       1  UNL1        0.1047
     26 H           2.6358   -0.4070   -2.2352 H       1  UNL1        0.0625
     27 H           1.2909   -2.2231   -1.3585 H       1  UNL1        0.0636
     28 H           0.4402    2.3827    0.1879 H       1  UNL1        0.0627
     29 H          -1.3576    1.7602    1.3896 H       1  UNL1        0.0317
     30 H          -0.9331    0.3544    2.3540 H       1  UNL1        0.0317
     31 H          -2.7984    0.1559   -0.1030 H       1  UNL1        0.0317
     32 H          -3.3742    0.7082    1.4623 H       1  UNL1        0.0317
     33 H          -4.6694   -0.9097    2.3883 H       1  UNL1        0.0621
     34 H          -5.0560   -3.2130    3.1559 H       1  UNL1        0.0618
     35 H          -3.3955   -4.9845    2.6398 H       1  UNL1        0.0618
     36 H          -1.3772   -4.4420    1.3592 H       1  UNL1        0.0636
     37 H          -0.1933   -2.9995    0.1346 H       1  UNL1        0.1522
@<TRIPOS>BOND
     1     1     2    3
     2     2     3    1
     3     3     4   ar
     4     4     5   ar
     5     5     6   ar
     6     6     7   ar
     7     7     8   ar
     8     8     9    1
     9     9    10   ar
    10    10    11   ar
    11    11    12   ar
    12    12    13   ar
    13    13    14   ar
    14    13    15    1
    15    15    16    1
    16    16    17    1
    17    17    18   ar
    18    18    19   ar
    19    19    20   ar
    20    20    21   ar
    21    21    22   ar
    22    22    23    1
    23     8     3   ar
    24    14     9   ar
    25    22    17   ar
    26    23    12    1
    27     4    24    1
    28     6    25    1
    29    10    26    1
    30    11    27    1
    31    14    28    1
    32    15    29    1
    33    15    30    1
    34    16    31    1
    35    16    32    1
    36    18    33    1
    37    19    34    1
    38    20    35    1
    39    21    36    1
    40    23    37    1
