@<TRIPOS>MOLECULE
*****
 32 35 0 0 0
SMALL
GASTEIGER

@<TRIPOS>ATOM
      1 N          -1.5206   -4.2115    2.7465 N.1     1  UNL1       -0.1908
      2 C          -2.1452   -3.2369    2.6689 C.1     1  UNL1        0.1028
      3 C          -2.9342   -2.0531    2.6025 C.ar    1  UNL1        0.0957
      4 C          -4.2546   -2.0846    3.0039 C.ar    1  UNL1        0.0487
      5 N          -5.0837   -1.0224    2.9509 N.ar    1  UNL1       -0.2424
      6 C          -4.5504    0.1051    2.4652 C.ar    1  UNL1        0.1166
      7 N          -3.2868    0.2513    2.0411 N.ar    1  UNL1       -0.2341
      8 C          -2.4742   -0.8351    2.1248 C.ar    1  UNL1        0.0916
      9 C          -1.0996   -0.5881    1.6478 C.ar    1  UNL1        0.0035
     10 C           0.0268   -0.8957    2.4227 C.ar    1  UNL1       -0.0514
     11 C           1.3166   -0.6594    1.9370 C.ar    1  UNL1       -0.0456
     12 C           1.5150   -0.0914    0.6721 C.ar    1  UNL1        0.0339
     13 C           0.4054    0.2657   -0.1070 C.ar    1  UNL1        0.0459
     14 C          -0.8843   -0.0028    0.3856 C.ar    1  UNL1       -0.0302
     15 N           0.5367    0.8049   -1.3996 N.pl3   1  UNL1       -0.3127
     16 C           1.7360    1.1826   -2.0308 C.ar    1  UNL1        0.0453
     17 C           1.6742    1.7613   -3.3092 C.ar    1  UNL1       -0.0395
     18 C           2.8371    2.1119   -3.9977 C.ar    1  UNL1       -0.0599
     19 C           4.0808    1.8741   -3.4230 C.ar    1  UNL1       -0.0606
     20 C           4.1596    1.2798   -2.1635 C.ar    1  UNL1       -0.0462
     21 C           2.9957    0.9240   -1.4646 C.ar    1  UNL1        0.0339
     22 S           3.1976    0.1581    0.1350 S.3     1  UNL1       -0.0857
     23 H          -4.7097   -2.9943    3.3907 H       1  UNL1        0.0844
     24 H          -5.1954    0.9754    2.4085 H       1  UNL1        0.1047
     25 H          -0.0765   -1.3190    3.4200 H       1  UNL1        0.0624
     26 H           2.1698   -0.9240    2.5588 H       1  UNL1        0.0629
     27 H          -1.7485    0.2504   -0.2271 H       1  UNL1        0.0643
     28 H          -0.2991    1.2335   -1.7759 H       1  UNL1        0.1522
     29 H           0.7125    1.9421   -3.7823 H       1  UNL1        0.0636
     30 H           2.7701    2.5644   -4.9837 H       1  UNL1        0.0618
     31 H           4.9897    2.1429   -3.9550 H       1  UNL1        0.0618
     32 H           5.1392    1.0909   -1.7299 H       1  UNL1        0.0629
@<TRIPOS>BOND
     1     1     2    3
     2     2     3    1
     3     3     4   ar
     4     4     5   ar
     5     5     6   ar
     6     6     7   ar
     7     7     8   ar
     8     8     9    1
     9     9    10   ar
    10    10    11   ar
    11    11    12   ar
    12    12    13   ar
    13    13    14   ar
    14    13    15    1
    15    15    16    1
    16    16    17   ar
    17    17    18   ar
    18    18    19   ar
    19    19    20   ar
    20    20    21   ar
    21    21    22    1
    22     8     3   ar
    23    14     9   ar
    24    21    16   ar
    25    22    12    1
    26     4    23    1
    27     6    24    1
    28    10    25    1
    29    11    26    1
    30    14    27    1
    31    15    28    1
    32    17    29    1
    33    18    30    1
    34    19    31    1
    35    20    32    1
