@<TRIPOS>MOLECULE
*****
 41 47 0 0 0
SMALL
GASTEIGER

@<TRIPOS>ATOM
      1 SI          5.8030   -0.7836   -0.0526 Si      1  UNL1        0.0000
      2 C           6.6256    0.9041    0.0262 C.2     1  UNL1        0.0000
      3 C           5.7428    1.9170    0.0382 C.2     1  UNL1        0.0000
      4 C           4.3361    1.4857   -0.0128 C.ar    1  UNL1        0.0000
      5 C           3.2601    2.3654   -0.0101 C.ar    1  UNL1        0.0000
      6 C           1.9574    1.8616   -0.0608 C.ar    1  UNL1        0.0000
      7 C           1.7211    0.4686   -0.1148 C.ar    1  UNL1        0.0000
      8 C           0.3844   -0.0136   -0.1663 C.ar    1  UNL1        0.0000
      9 N          -0.8423    0.6257   -0.1783 N.ar    1  UNL1        0.0000
     10 C          -1.8857   -0.2838   -0.2273 C.ar    1  UNL1        0.0000
     11 C          -1.3268   -1.5509   -0.2608 C.ar    1  UNL1        0.0000
     12 C           0.0539   -1.3506   -0.2190 C.ar    1  UNL1        0.0000
     13 C           1.0865   -2.3295   -0.2257 C.ar    1  UNL1        0.0000
     14 N           0.8316   -3.6282   -0.2743 N.ar    1  UNL1        0.0000
     15 S           2.3664   -4.2939   -0.2580 S.2     1  UNL1        0.0000
     16 N           3.3021   -2.9092   -0.1886 N.ar    1  UNL1        0.0000
     17 C           2.4594   -1.8518   -0.1745 C.ar    1  UNL1        0.0000
     18 C           2.8162   -0.4527   -0.1180 C.ar    1  UNL1        0.0000
     19 C           4.1250    0.0835   -0.0662 C.ar    1  UNL1        0.0000
     20 C          -3.2721    0.1398   -0.2516 C.ar    1  UNL1        0.0000
     21 C          -3.7943    1.0420   -1.2096 C.ar    1  UNL1        0.0000
     22 C          -5.1628    1.4639   -1.2453 C.ar    1  UNL1        0.0000
     23 C          -6.1453    1.0324   -0.3284 C.ar    1  UNL1        0.0000
     24 C          -5.6247    0.1475    0.6165 C.ar    1  UNL1        0.0000
     25 C          -6.3946   -0.3974    1.6139 C.ar    1  UNL1        0.0000
     26 S          -5.4635   -1.4280    2.6254 S.2     1  UNL1        0.0000
     27 C          -4.0269   -1.1409    1.7234 C.ar    1  UNL1        0.0000
     28 C          -4.2481   -0.2904    0.6643 C.ar    1  UNL1        0.0000
     29 H           6.1315   -1.4629   -1.3316 H       1  UNL1        0.0000
     30 H           6.0668   -1.5495    1.1920 H       1  UNL1        0.0000
     31 H           7.7006    0.9909    0.0570 H       1  UNL1        0.0000
     32 H           6.0138    2.9635    0.0812 H       1  UNL1        0.0000
     33 H           3.4232    3.4388    0.0316 H       1  UNL1        0.0000
     34 H           1.1364    2.5730   -0.0565 H       1  UNL1        0.0000
     35 H          -0.9700    1.6265   -0.1357 H       1  UNL1        0.0000
     36 H          -1.8640   -2.4897   -0.3139 H       1  UNL1        0.0000
     37 H          -3.1307    1.4288   -1.9837 H       1  UNL1        0.0000
     38 H          -5.4628    2.1556   -2.0336 H       1  UNL1        0.0000
     39 H          -7.1745    1.3632   -0.3742 H       1  UNL1        0.0000
     40 H          -7.4468   -0.2522    1.8163 H       1  UNL1        0.0000
     41 H          -3.1080   -1.6187    2.0332 H       1  UNL1        0.0000
@<TRIPOS>BOND
     1     1     2    1
     2     2     3    2
     3     3     4    1
     4     4     5   ar
     5     5     6   ar
     6     6     7   ar
     7     7     8   ar
     8     8     9   ar
     9     9    10   ar
    10    10    11   ar
    11    11    12   ar
    12    12    13   ar
    13    13    14   ar
    14    14    15   ar
    15    15    16   ar
    16    16    17   ar
    17    17    18   ar
    18    18    19   ar
    19    10    20    1
    20    20    21   ar
    21    21    22   ar
    22    22    23   ar
    23    23    24   ar
    24    24    25   ar
    25    25    26   ar
    26    26    27   ar
    27    27    28   ar
    28    19     1    1
    29    28    20   ar
    30    19     4   ar
    31    28    24   ar
    32    18     7   ar
    33    12     8   ar
    34    17    13   ar
    35     1    29    1
    36     1    30    1
    37     2    31    1
    38     3    32    1
    39     5    33    1
    40     6    34    1
    41     9    35    1
    42    11    36    1
    43    21    37    1
    44    22    38    1
    45    23    39    1
    46    25    40    1
    47    27    41    1
