@<TRIPOS>MOLECULE
*****
 32 35 0 0 0
SMALL
GASTEIGER

@<TRIPOS>ATOM
      1 N          -3.0551   -0.4389   -3.4650 N.1     1  UNL1       -0.1908
      2 C          -3.4591   -0.3250   -2.3834 C.1     1  UNL1        0.1028
      3 C          -3.9941   -0.1866   -1.0709 C.ar    1  UNL1        0.0957
      4 C          -5.3592   -0.2355   -0.8739 C.ar    1  UNL1        0.0487
      5 N          -5.9529   -0.0777    0.3268 N.ar    1  UNL1       -0.2424
      6 C          -5.1273    0.1448    1.3571 C.ar    1  UNL1        0.1166
      7 N          -3.7905    0.2186    1.2847 N.ar    1  UNL1       -0.2341
      8 C          -3.2270    0.0371    0.0621 C.ar    1  UNL1        0.0916
      9 C          -1.7565    0.1179    0.0667 C.ar    1  UNL1        0.0038
     10 C          -1.1087    1.2486    0.5692 C.ar    1  UNL1       -0.0518
     11 C           0.2865    1.3247    0.5818 C.ar    1  UNL1       -0.0514
     12 C           1.0913    0.2643    0.1006 C.ar    1  UNL1        0.0081
     13 C           0.4341   -0.8860   -0.3913 C.ar    1  UNL1        0.0722
     14 C          -0.9546   -0.9369   -0.3966 C.ar    1  UNL1       -0.0265
     15 N           1.0859   -1.9553   -0.8614 N.ar    1  UNL1       -0.2543
     16 C           2.4350   -1.9213   -0.8688 C.ar    1  UNL1        0.0360
     17 C           3.2040   -0.8551   -0.4188 C.ar    1  UNL1        0.0008
     18 C           4.6100   -0.9010   -0.4615 C.ar    1  UNL1       -0.0526
     19 C           5.3696    0.1729   -0.0068 C.ar    1  UNL1       -0.0611
     20 C           4.7313    1.2991    0.4933 C.ar    1  UNL1       -0.0611
     21 C           3.3340    1.3500    0.5377 C.ar    1  UNL1       -0.0534
     22 C           2.5270    0.2757    0.0834 C.ar    1  UNL1       -0.0073
     23 H          -6.0472   -0.4028   -1.7003 H       1  UNL1        0.0844
     24 H          -5.5781    0.2782    2.3348 H       1  UNL1        0.1047
     25 H          -1.6892    2.0825    0.9614 H       1  UNL1        0.0624
     26 H           0.7340    2.2299    0.9821 H       1  UNL1        0.0624
     27 H          -1.4179   -1.8504   -0.7678 H       1  UNL1        0.0645
     28 H           2.8984   -2.8208   -1.2670 H       1  UNL1        0.0836
     29 H           5.1216   -1.7787   -0.8517 H       1  UNL1        0.0624
     30 H           6.4549    0.1297   -0.0435 H       1  UNL1        0.0618
     31 H           5.3161    2.1432    0.8505 H       1  UNL1        0.0618
     32 H           2.8838    2.2545    0.9374 H       1  UNL1        0.0624
@<TRIPOS>BOND
     1     1     2    3
     2     2     3    1
     3     3     4   ar
     4     4     5   ar
     5     5     6   ar
     6     6     7   ar
     7     7     8   ar
     8     8     9    1
     9     9    10   ar
    10    10    11   ar
    11    11    12   ar
    12    12    13   ar
    13    13    14   ar
    14    13    15   ar
    15    15    16   ar
    16    16    17   ar
    17    17    18   ar
    18    18    19   ar
    19    19    20   ar
    20    20    21   ar
    21    21    22   ar
    22     8     3   ar
    23    14     9   ar
    24    22    17   ar
    25    22    12   ar
    26     4    23    1
    27     6    24    1
    28    10    25    1
    29    11    26    1
    30    14    27    1
    31    16    28    1
    32    18    29    1
    33    19    30    1
    34    20    31    1
    35    21    32    1
