@<TRIPOS>MOLECULE
*****
 31 34 0 0 0
SMALL
GASTEIGER

@<TRIPOS>ATOM
      1 N           2.7374    3.1566   -0.6827 N.1     1  UNL1       -0.1908
      2 C           3.2152    2.1012   -0.6189 C.1     1  UNL1        0.1028
      3 C           3.8324    0.8210   -0.5287 C.ar    1  UNL1        0.0957
      4 C           5.2079    0.7217   -0.4728 C.ar    1  UNL1        0.0487
      5 N           5.8766   -0.4481   -0.4156 N.ar    1  UNL1       -0.2424
      6 C           5.1174   -1.5508   -0.4239 C.ar    1  UNL1        0.1166
      7 N           3.7781   -1.5759   -0.4804 N.ar    1  UNL1       -0.2341
      8 C           3.1373   -0.3787   -0.5210 C.ar    1  UNL1        0.0916
      9 C           1.6676   -0.4906   -0.5722 C.ar    1  UNL1        0.0054
     10 C           1.0522   -1.2807   -1.5627 C.ar    1  UNL1       -0.0488
     11 C          -0.3388   -1.4072   -1.6306 C.ar    1  UNL1       -0.0150
     12 C          -1.1363   -0.7503   -0.6994 C.ar    1  UNL1        0.1706
     13 C          -0.5486    0.0241    0.2970 C.ar    1  UNL1        0.1712
     14 C           0.8408    0.1522    0.3661 C.ar    1  UNL1       -0.0064
     15 O          -1.2910    0.6833    1.2448 O.3     1  UNL1       -0.4486
     16 C          -2.6510    0.5348    1.1385 C.ar    1  UNL1        0.1706
     17 C          -3.4472    1.1920    2.0753 C.ar    1  UNL1       -0.0156
     18 C          -4.8365    1.0714    2.0092 C.ar    1  UNL1       -0.0581
     19 C          -5.4250    0.2951    1.0083 C.ar    1  UNL1       -0.0581
     20 C          -4.6256   -0.3620    0.0712 C.ar    1  UNL1       -0.0156
     21 C          -3.2385   -0.2397    0.1391 C.ar    1  UNL1        0.1706
     22 O          -2.4951   -0.9038   -0.8040 O.3     1  UNL1       -0.4486
     23 H           5.8425    1.6056   -0.4769 H       1  UNL1        0.0844
     24 H           5.6291   -2.5065   -0.3821 H       1  UNL1        0.1047
     25 H           1.6644   -1.8103   -2.2919 H       1  UNL1        0.0625
     26 H          -0.7936   -2.0198   -2.4040 H       1  UNL1        0.0656
     27 H           1.2662    0.7488    1.1700 H       1  UNL1        0.0662
     28 H          -2.9882    1.7962    2.8526 H       1  UNL1        0.0655
     29 H          -5.4607    1.5830    2.7376 H       1  UNL1        0.0619
     30 H          -6.5072    0.2026    0.9582 H       1  UNL1        0.0619
     31 H          -5.0819   -0.9656   -0.7081 H       1  UNL1        0.0655
@<TRIPOS>BOND
     1     1     2    3
     2     2     3    1
     3     3     4   ar
     4     4     5   ar
     5     5     6   ar
     6     6     7   ar
     7     7     8   ar
     8     8     9    1
     9     9    10   ar
    10    10    11   ar
    11    11    12   ar
    12    12    13   ar
    13    13    14   ar
    14    13    15    1
    15    15    16    1
    16    16    17   ar
    17    17    18   ar
    18    18    19   ar
    19    19    20   ar
    20    20    21   ar
    21    21    22    1
    22     8     3   ar
    23    14     9   ar
    24    21    16   ar
    25    22    12    1
    26     4    23    1
    27     6    24    1
    28    10    25    1
    29    11    26    1
    30    14    27    1
    31    17    28    1
    32    18    29    1
    33    19    30    1
    34    20    31    1
