@<TRIPOS>MOLECULE
*****
 30 33 0 0 0
SMALL
GASTEIGER

@<TRIPOS>ATOM
      1 N          -2.5011    0.4568    2.7084 N.1     1  UNL1       -0.1908
      2 C          -2.1336    1.0532    1.7835 C.1     1  UNL1        0.1028
      3 C          -1.7024    1.8238    0.6658 C.ar    1  UNL1        0.0957
      4 C          -1.7558    3.2008    0.6993 C.ar    1  UNL1        0.0487
      5 N          -1.3703    3.9918   -0.3239 N.ar    1  UNL1       -0.2424
      6 C          -0.9252    3.3567   -1.4171 C.ar    1  UNL1        0.1166
      7 N          -0.8279    2.0280   -1.5624 N.ar    1  UNL1       -0.2341
      8 C          -1.2147    1.2694   -0.5065 C.ar    1  UNL1        0.0921
      9 C          -1.0875   -0.1721   -0.7130 C.ar    1  UNL1        0.0114
     10 C          -2.1316   -0.9121   -1.3039 C.ar    1  UNL1       -0.0518
     11 C          -2.0407   -2.2922   -1.4570 C.ar    1  UNL1       -0.0592
     12 C          -0.9093   -2.9842   -1.0267 C.ar    1  UNL1       -0.0377
     13 C           0.1320   -2.2434   -0.4549 C.ar    1  UNL1        0.0481
     14 N           1.3379   -2.6764    0.0434 N.ar    1  UNL1       -0.3529
     15 C           2.0880   -1.6231    0.5010 C.ar    1  UNL1        0.0658
     16 C           3.3555   -1.6053    1.0690 C.ar    1  UNL1        0.0514
     17 N           3.8987   -0.4232    1.4319 N.ar    1  UNL1       -0.2612
     18 C           3.1940    0.7088    1.2257 C.ar    1  UNL1        0.0283
     19 C           1.9246    0.7601    0.6678 C.ar    1  UNL1       -0.0338
     20 C           1.3423   -0.4635    0.2950 C.ar    1  UNL1        0.0109
     21 C           0.0871   -0.8553   -0.2952 C.ar    1  UNL1        0.0167
     22 H          -2.1213    3.7353    1.5737 H       1  UNL1        0.0844
     23 H          -0.6155    3.9702   -2.2565 H       1  UNL1        0.1047
     24 H          -3.0295   -0.4010   -1.6472 H       1  UNL1        0.0624
     25 H          -2.8632   -2.8391   -1.9130 H       1  UNL1        0.0618
     26 H          -0.8439   -4.0621   -1.1402 H       1  UNL1        0.0638
     27 H           1.6333   -3.6418    0.0610 H       1  UNL1        0.1659
     28 H           3.9504   -2.4939    1.2405 H       1  UNL1        0.0851
     29 H           3.6981    1.6220    1.5311 H       1  UNL1        0.0830
     30 H           1.4314    1.7119    0.5203 H       1  UNL1        0.0639
@<TRIPOS>BOND
     1     1     2    3
     2     2     3    1
     3     3     4   ar
     4     4     5   ar
     5     5     6   ar
     6     6     7   ar
     7     7     8   ar
     8     8     9    1
     9     9    10   ar
    10    10    11   ar
    11    11    12   ar
    12    12    13   ar
    13    13    14   ar
    14    14    15   ar
    15    15    16   ar
    16    16    17   ar
    17    17    18   ar
    18    18    19   ar
    19    19    20   ar
    20    20    21   ar
    21     8     3   ar
    22    21     9   ar
    23    21    13   ar
    24    20    15   ar
    25     4    22    1
    26     6    23    1
    27    10    24    1
    28    11    25    1
    29    12    26    1
    30    14    27    1
    31    16    28    1
    32    18    29    1
    33    19    30    1
