@<TRIPOS>MOLECULE
*****
 30 33 0 0 0
SMALL
GASTEIGER

@<TRIPOS>ATOM
      1 N           2.6801    2.4601   -0.9504 N.1     1  UNL1       -0.1908
      2 C           2.6255    1.3444   -0.6371 C.1     1  UNL1        0.1028
      3 C           2.5941   -0.0306   -0.2680 C.ar    1  UNL1        0.0957
      4 C           3.5046   -0.9210   -0.7955 C.ar    1  UNL1        0.0487
      5 N           3.5348   -2.2342   -0.4865 N.ar    1  UNL1       -0.2424
      6 C           2.6120   -2.6487    0.3928 C.ar    1  UNL1        0.1166
      7 N           1.6802   -1.8760    0.9682 N.ar    1  UNL1       -0.2341
      8 C           1.6778   -0.5647    0.6232 C.ar    1  UNL1        0.0922
      9 C           0.6385    0.2292    1.2740 C.ar    1  UNL1        0.0130
     10 C           0.8532    0.8332    2.5319 C.ar    1  UNL1       -0.0517
     11 C          -0.1273    1.6189    3.1402 C.ar    1  UNL1       -0.0576
     12 C          -1.3594    1.8322    2.5207 C.ar    1  UNL1       -0.0187
     13 C          -1.5572    1.2163    1.2863 C.ar    1  UNL1        0.1369
     14 O          -2.6945    1.3156    0.5479 O.2     1  UNL1       -0.4548
     15 C          -2.5072    0.5751   -0.5760 C.ar    1  UNL1        0.1363
     16 C          -3.4453    0.4168   -1.5943 C.ar    1  UNL1       -0.0187
     17 C          -3.0727   -0.3943   -2.6696 C.ar    1  UNL1       -0.0582
     18 C          -1.8213   -1.0117   -2.7047 C.ar    1  UNL1       -0.0610
     19 C          -0.8974   -0.8326   -1.6643 C.ar    1  UNL1       -0.0504
     20 C          -1.2457   -0.0117   -0.5722 C.ar    1  UNL1        0.0285
     21 C          -0.6153    0.4178    0.6417 C.ar    1  UNL1        0.0371
     22 H           4.2655   -0.6040   -1.5057 H       1  UNL1        0.0844
     23 H           2.6187   -3.6997    0.6616 H       1  UNL1        0.1047
     24 H           1.8024    0.6860    3.0458 H       1  UNL1        0.0624
     25 H           0.0700    2.0732    4.1091 H       1  UNL1        0.0619
     26 H          -2.1323    2.4419    2.9737 H       1  UNL1        0.0654
     27 H          -4.4139    0.8995   -1.5466 H       1  UNL1        0.0654
     28 H          -3.7721   -0.5494   -3.4886 H       1  UNL1        0.0619
     29 H          -1.5589   -1.6453   -3.5497 H       1  UNL1        0.0618
     30 H           0.0630   -1.3363   -1.7080 H       1  UNL1        0.0625
@<TRIPOS>BOND
     1     1     2    3
     2     2     3    1
     3     3     4   ar
     4     4     5   ar
     5     5     6   ar
     6     6     7   ar
     7     7     8   ar
     8     8     9    1
     9     9    10   ar
    10    10    11   ar
    11    11    12   ar
    12    12    13   ar
    13    13    14   ar
    14    14    15   ar
    15    15    16   ar
    16    16    17   ar
    17    17    18   ar
    18    18    19   ar
    19    19    20   ar
    20    20    21   ar
    21     8     3   ar
    22    21     9   ar
    23    21    13   ar
    24    20    15   ar
    25     4    22    1
    26     6    23    1
    27    10    24    1
    28    11    25    1
    29    12    26    1
    30    16    27    1
    31    17    28    1
    32    18    29    1
    33    19    30    1
