@<TRIPOS>MOLECULE
*****
 29 32 0 0 0
SMALL
GASTEIGER

@<TRIPOS>ATOM
      1 N           1.6615    0.9324    3.4716 N.1     1  UNL1       -0.1908
      2 C           1.8339    0.2432    2.5545 C.1     1  UNL1        0.1028
      3 C           2.0677   -0.6200    1.4465 C.ar    1  UNL1        0.0957
      4 C           2.7382   -1.8128    1.6152 C.ar    1  UNL1        0.0487
      5 N           2.9919   -2.6789    0.6120 N.ar    1  UNL1       -0.2424
      6 C           2.5521   -2.3143   -0.5998 C.ar    1  UNL1        0.1166
      7 N           1.8847   -1.1860   -0.8796 N.ar    1  UNL1       -0.2341
      8 C           1.6479   -0.3425    0.1559 C.ar    1  UNL1        0.0922
      9 C           0.9243    0.8744   -0.2101 C.ar    1  UNL1        0.0131
     10 C           1.5879    2.1120   -0.3625 C.ar    1  UNL1       -0.0517
     11 C           0.8942    3.2765   -0.6968 C.ar    1  UNL1       -0.0576
     12 C          -0.4865    3.2549   -0.8948 C.ar    1  UNL1       -0.0186
     13 C          -1.1233    2.0240   -0.7483 C.ar    1  UNL1        0.1389
     14 O          -2.4576    1.8256   -0.9046 O.2     1  UNL1       -0.4368
     15 C          -2.6987    0.5067   -0.6827 C.ar    1  UNL1        0.2284
     16 N          -3.9317   -0.0279   -0.7568 N.ar    1  UNL1       -0.2205
     17 C          -3.9535   -1.3532   -0.5049 C.ar    1  UNL1        0.0314
     18 C          -2.8498   -2.1361   -0.1957 C.ar    1  UNL1       -0.0428
     19 C          -1.5911   -1.5377   -0.1284 C.ar    1  UNL1       -0.0474
     20 C          -1.5089   -0.1561   -0.3804 C.ar    1  UNL1        0.0482
     21 C          -0.4769    0.8350   -0.4193 C.ar    1  UNL1        0.0387
     22 H           3.1072   -2.1262    2.5896 H       1  UNL1        0.0844
     23 H           2.7500   -2.9905   -1.4248 H       1  UNL1        0.1047
     24 H           2.6670    2.1690   -0.2238 H       1  UNL1        0.0624
     25 H           1.4352    4.2146   -0.8054 H       1  UNL1        0.0619
     26 H          -1.0442    4.1479   -1.1530 H       1  UNL1        0.0654
     27 H          -4.9421   -1.8042   -0.5620 H       1  UNL1        0.0831
     28 H          -2.9670   -3.1994   -0.0127 H       1  UNL1        0.0633
     29 H          -0.7125   -2.1304    0.1013 H       1  UNL1        0.0626
@<TRIPOS>BOND
     1     1     2    3
     2     2     3    1
     3     3     4   ar
     4     4     5   ar
     5     5     6   ar
     6     6     7   ar
     7     7     8   ar
     8     8     9    1
     9     9    10   ar
    10    10    11   ar
    11    11    12   ar
    12    12    13   ar
    13    13    14   ar
    14    14    15   ar
    15    15    16   ar
    16    16    17   ar
    17    17    18   ar
    18    18    19   ar
    19    19    20   ar
    20    20    21   ar
    21     8     3   ar
    22    21     9   ar
    23    21    13   ar
    24    20    15   ar
    25     4    22    1
    26     6    23    1
    27    10    24    1
    28    11    25    1
    29    12    26    1
    30    17    27    1
    31    18    28    1
    32    19    29    1
