@<TRIPOS>MOLECULE
*****
 29 32 0 0 0
SMALL
GASTEIGER

@<TRIPOS>ATOM
      1 N          -3.5309   -0.7406   -0.8769 N.1     1  UNL1       -0.1908
      2 C          -2.7903   -0.8383    0.0107 C.1     1  UNL1        0.1028
      3 C          -1.9094   -0.9591    1.1230 C.ar    1  UNL1        0.0957
      4 C          -2.3888   -0.8737    2.4125 C.ar    1  UNL1        0.0487
      5 N          -1.6110   -0.9825    3.5100 N.ar    1  UNL1       -0.2424
      6 C          -0.3068   -1.1936    3.2846 C.ar    1  UNL1        0.1166
      7 N           0.2701   -1.2888    2.0785 N.ar    1  UNL1       -0.2341
      8 C          -0.5444   -1.1643    1.0012 C.ar    1  UNL1        0.0921
      9 C           0.1339   -1.2927   -0.2898 C.ar    1  UNL1        0.0106
     10 C           0.2438   -2.5650   -0.8891 C.ar    1  UNL1       -0.0519
     11 C           0.8395   -2.7237   -2.1289 C.ar    1  UNL1       -0.0601
     12 C           1.3409   -1.6177   -2.8062 C.ar    1  UNL1       -0.0473
     13 C           1.2504   -0.3422   -2.2118 C.ar    1  UNL1        0.0226
     14 S           1.8129    1.1227   -2.9112 S.2     1  UNL1       -0.0687
     15 C           1.3286    2.0373   -1.5732 C.ar    1  UNL1        0.1093
     16 N           1.5396    3.3709   -1.5601 N.ar    1  UNL1       -0.2478
     17 C           1.1295    3.9884   -0.4386 C.ar    1  UNL1        0.0289
     18 C           0.5404    3.3630    0.6416 C.ar    1  UNL1       -0.0429
     19 C           0.3397    1.9852    0.5845 C.ar    1  UNL1       -0.0500
     20 C           0.7385    1.2713   -0.5730 C.ar    1  UNL1        0.0160
     21 C           0.6679   -0.1394   -0.9520 C.ar    1  UNL1        0.0076
     22 H          -3.4447   -0.7111    2.6185 H       1  UNL1        0.0844
     23 H           0.3377   -1.2935    4.1516 H       1  UNL1        0.1047
     24 H          -0.1438   -3.4432   -0.3744 H       1  UNL1        0.0624
     25 H           0.9127   -3.7116   -2.5777 H       1  UNL1        0.0618
     26 H           1.8018   -1.7385   -3.7837 H       1  UNL1        0.0629
     27 H           1.2998    5.0625   -0.4253 H       1  UNL1        0.0830
     28 H           0.2463    3.9326    1.5167 H       1  UNL1        0.0633
     29 H          -0.1037    1.4856    1.4383 H       1  UNL1        0.0625
@<TRIPOS>BOND
     1     1     2    3
     2     2     3    1
     3     3     4   ar
     4     4     5   ar
     5     5     6   ar
     6     6     7   ar
     7     7     8   ar
     8     8     9    1
     9     9    10   ar
    10    10    11   ar
    11    11    12   ar
    12    12    13   ar
    13    13    14   ar
    14    14    15   ar
    15    15    16   ar
    16    16    17   ar
    17    17    18   ar
    18    18    19   ar
    19    19    20   ar
    20    20    21   ar
    21     8     3   ar
    22    21     9   ar
    23    21    13   ar
    24    20    15   ar
    25     4    22    1
    26     6    23    1
    27    10    24    1
    28    11    25    1
    29    12    26    1
    30    17    27    1
    31    18    28    1
    32    19    29    1
