@<TRIPOS>MOLECULE
*****
 23 24 0 0 0
SMALL
GASTEIGER

@<TRIPOS>ATOM
      1 N          -2.1263    0.6237    2.7730 N.1     1  UNL1       -0.1908
      2 C          -2.0525    0.1762    1.7047 C.1     1  UNL1        0.1028
      3 C          -2.0173   -0.3652    0.3876 C.ar    1  UNL1        0.0958
      4 C          -3.1182   -1.0220   -0.1222 C.ar    1  UNL1        0.0487
      5 N          -3.1646   -1.5706   -1.3542 N.ar    1  UNL1       -0.2424
      6 C          -2.0481   -1.4538   -2.0842 C.ar    1  UNL1        0.1166
      7 N          -0.9170   -0.8493   -1.6926 N.ar    1  UNL1       -0.2341
      8 C          -0.9165   -0.2915   -0.4512 C.ar    1  UNL1        0.0932
      9 C           0.3496    0.3666   -0.0777 C.ar    1  UNL1        0.0223
     10 C           0.3771    1.7565    0.1569 C.ar    1  UNL1       -0.0508
     11 C           1.5461    2.3953    0.5718 C.ar    1  UNL1       -0.0610
     12 C           2.7049    1.6543    0.7704 C.ar    1  UNL1       -0.0600
     13 C           2.7024    0.2808    0.5272 C.ar    1  UNL1       -0.0404
     14 C           1.5538   -0.3649    0.0479 C.ar    1  UNL1        0.0339
     15 N           1.5763   -1.7710   -0.0840 N.pl3   1  UNL1       -0.3575
     16 H          -4.0312   -1.1357    0.4587 H       1  UNL1        0.0844
     17 H          -2.0589   -1.8875   -3.0785 H       1  UNL1        0.1047
     18 H          -0.5223    2.3553    0.0253 H       1  UNL1        0.0625
     19 H           1.5451    3.4663    0.7583 H       1  UNL1        0.0618
     20 H           3.6104    2.1415    1.1226 H       1  UNL1        0.0618
     21 H           3.6114   -0.2865    0.7102 H       1  UNL1        0.0636
     22 H           0.8942   -2.0853   -0.7756 H       1  UNL1        0.1423
     23 H           2.5015   -2.1332   -0.2943 H       1  UNL1        0.1423
@<TRIPOS>BOND
     1     1     2    3
     2     2     3    1
     3     3     4   ar
     4     4     5   ar
     5     5     6   ar
     6     6     7   ar
     7     7     8   ar
     8     8     9    1
     9     9    10   ar
    10    10    11   ar
    11    11    12   ar
    12    12    13   ar
    13    13    14   ar
    14    14    15    1
    15     8     3   ar
    16    14     9   ar
    17     4    16    1
    18     6    17    1
    19    10    18    1
    20    11    19    1
    21    12    20    1
    22    13    21    1
    23    15    22    1
    24    15    23    1
