@<TRIPOS>MOLECULE
*****
 19 20 0 0 0
SMALL
GASTEIGER

@<TRIPOS>ATOM
      1 N           1.6628   -3.1901   -0.0815 N.1     1  UNL1       -0.1908
      2 C           1.6490   -2.0426    0.0918 C.1     1  UNL1        0.1029
      3 C           1.7187   -0.6459    0.3731 C.ar    1  UNL1        0.0973
      4 C           2.8791   -0.1388    0.9275 C.ar    1  UNL1        0.0488
      5 N           3.0504    1.1510    1.2810 N.ar    1  UNL1       -0.2424
      6 C           2.0023    1.9518    1.0693 C.ar    1  UNL1        0.1167
      7 N           0.8276    1.5744    0.5449 N.ar    1  UNL1       -0.2325
      8 C           0.6888    0.2651    0.1804 C.ar    1  UNL1        0.1114
      9 C          -0.6211   -0.0632   -0.4202 C.ar    1  UNL1        0.1128
     10 C          -1.7790    0.6637   -0.1516 C.ar    1  UNL1       -0.0309
     11 C          -2.9729    0.3070   -0.7707 C.ar    1  UNL1       -0.0398
     12 C          -2.9596   -0.7618   -1.6407 C.ar    1  UNL1        0.0500
     13 N          -1.8377   -1.4551   -1.9023 N.ar    1  UNL1       -0.1571
     14 N          -0.6633   -1.0982   -1.2890 N.ar    1  UNL1       -0.1477
     15 H           3.7401   -0.7768    1.1202 H       1  UNL1        0.0844
     16 H           2.1105    2.9951    1.3460 H       1  UNL1        0.1047
     17 H          -1.7572    1.5058    0.5343 H       1  UNL1        0.0640
     18 H          -3.8881    0.8550   -0.5779 H       1  UNL1        0.0634
     19 H          -3.8505   -1.0964   -2.1590 H       1  UNL1        0.0848
@<TRIPOS>BOND
     1     1     2    3
     2     2     3    1
     3     3     4   ar
     4     4     5   ar
     5     5     6   ar
     6     6     7   ar
     7     7     8   ar
     8     8     9    1
     9     9    10   ar
    10    10    11   ar
    11    11    12   ar
    12    12    13   ar
    13    13    14   ar
    14     8     3   ar
    15    14     9   ar
    16     4    15    1
    17     6    16    1
    18    10    17    1
    19    11    18    1
    20    12    19    1
