@<TRIPOS>MOLECULE
*****
 18 19 0 0 0
SMALL
GASTEIGER

@<TRIPOS>ATOM
      1 N          -0.2847    3.3523    0.5784 N.1     1  UNL1       -0.1908
      2 C          -0.6943    2.2786    0.4194 C.1     1  UNL1        0.1028
      3 C          -1.2257    0.9715    0.2406 C.ar    1  UNL1        0.0958
      4 C          -2.5950    0.7908    0.2572 C.ar    1  UNL1        0.0487
      5 N          -3.2032   -0.3986    0.0733 N.ar    1  UNL1       -0.2424
      6 C          -2.3892   -1.4385   -0.1410 C.ar    1  UNL1        0.1166
      7 N          -1.0515   -1.3839   -0.1816 N.ar    1  UNL1       -0.2340
      8 C          -0.4747   -0.1694    0.0190 C.ar    1  UNL1        0.0944
      9 C           0.9834   -0.1935   -0.0277 C.ar    1  UNL1        0.0389
     10 C           1.9797    0.6048    0.5832 C.ar    1  UNL1        0.0584
     11 N           3.2194    0.2118    0.2768 N.ar    1  UNL1       -0.1817
     12 N           3.0280   -0.8505   -0.5190 N.ar    1  UNL1       -0.2841
     13 C           1.7123   -1.1357   -0.7288 C.ar    1  UNL1        0.0315
     14 H          -3.2760    1.6241    0.4204 H       1  UNL1        0.0844
     15 H          -2.8509   -2.4079   -0.2950 H       1  UNL1        0.1047
     16 H           1.8695    1.4529    1.2476 H       1  UNL1        0.0854
     17 H           3.8431   -1.3360   -0.8801 H       1  UNL1        0.1882
     18 H           1.4098   -1.9727   -1.3429 H       1  UNL1        0.0830
@<TRIPOS>BOND
     1     1     2    3
     2     2     3    1
     3     3     4   ar
     4     4     5   ar
     5     5     6   ar
     6     6     7   ar
     7     7     8   ar
     8     8     9    1
     9     9    10   ar
    10    10    11   ar
    11    11    12   ar
    12    12    13   ar
    13     8     3   ar
    14    13     9   ar
    15     4    14    1
    16     6    15    1
    17    10    16    1
    18    12    17    1
    19    13    18    1
