@<TRIPOS>MOLECULE
*****
 28 31 0 0 0
SMALL
GASTEIGER

@<TRIPOS>ATOM
      1 N          -0.7816    3.3371    3.1368 N.1     1  UNL1       -0.1908
      2 C          -1.4600    2.4709    2.7704 C.1     1  UNL1        0.1028
      3 C          -2.3105    1.4176    2.3297 C.ar    1  UNL1        0.0958
      4 C          -3.4183    1.0704    3.0763 C.ar    1  UNL1        0.0487
      5 N          -4.2587    0.0670    2.7523 N.ar    1  UNL1       -0.2424
      6 C          -3.9553   -0.6088    1.6378 C.ar    1  UNL1        0.1166
      7 N          -2.9049   -0.3646    0.8403 N.ar    1  UNL1       -0.2341
      8 C          -2.0888    0.6650    1.1858 C.ar    1  UNL1        0.0930
      9 C          -0.9697    0.8678    0.2523 C.ar    1  UNL1        0.0204
     10 C          -0.7134    2.0919   -0.3622 C.ar    1  UNL1        0.0381
     11 N           0.2821    2.3594   -1.2369 N.ar    1  UNL1       -0.2471
     12 C           1.0696    1.3015   -1.5196 C.ar    1  UNL1        0.1107
     13 S           2.3718    1.4568   -2.6012 S.2     1  UNL1       -0.0490
     14 C           2.7900   -0.1815   -2.4188 C.ar    1  UNL1        0.1107
     15 N           3.8401   -0.7003   -3.0907 N.ar    1  UNL1       -0.2478
     16 C           4.0561   -2.0086   -2.8529 C.ar    1  UNL1        0.0289
     17 C           3.3044   -2.8043   -2.0068 C.ar    1  UNL1       -0.0429
     18 C           2.2294   -2.2308   -1.3318 C.ar    1  UNL1       -0.0500
     19 C           1.9516   -0.8610   -1.5394 C.ar    1  UNL1        0.0169
     20 C           0.9389    0.0160   -1.0072 C.ar    1  UNL1        0.0175
     21 C          -0.1222   -0.1953   -0.0960 C.ar    1  UNL1       -0.0407
     22 H          -3.6762    1.5984    3.9924 H       1  UNL1        0.0844
     23 H          -4.6136   -1.4237    1.3557 H       1  UNL1        0.1047
     24 H          -1.3493    2.9554   -0.1700 H       1  UNL1        0.0836
     25 H           4.9013   -2.4306   -3.3926 H       1  UNL1        0.0830
     26 H           3.5494   -3.8527   -1.8741 H       1  UNL1        0.0633
     27 H           1.6198   -2.8291   -0.6613 H       1  UNL1        0.0625
     28 H          -0.2817   -1.1839    0.3285 H       1  UNL1        0.0631
@<TRIPOS>BOND
     1     1     2    3
     2     2     3    1
     3     3     4   ar
     4     4     5   ar
     5     5     6   ar
     6     6     7   ar
     7     7     8   ar
     8     8     9    1
     9     9    10   ar
    10    10    11   ar
    11    11    12   ar
    12    12    13   ar
    13    13    14   ar
    14    14    15   ar
    15    15    16   ar
    16    16    17   ar
    17    17    18   ar
    18    18    19   ar
    19    19    20   ar
    20    20    21   ar
    21     8     3   ar
    22    21     9   ar
    23    20    12   ar
    24    19    14   ar
    25     4    22    1
    26     6    23    1
    27    10    24    1
    28    16    25    1
    29    17    26    1
    30    18    27    1
    31    21    28    1
