@<TRIPOS>MOLECULE
*****
 41 46 0 0 0
SMALL
GASTEIGER

@<TRIPOS>ATOM
      1 SI         -5.3024   -0.0975    1.7614 Si      1  UNL1        0.0000
      2 C          -6.5807   -0.1929    0.4154 C.2     1  UNL1        0.0000
      3 C          -6.0294   -0.2248   -0.8076 C.2     1  UNL1        0.0000
      4 C          -4.5573   -0.1774   -0.8002 C.ar    1  UNL1        0.0000
      5 C          -3.8044   -0.1999   -1.9540 C.ar    1  UNL1        0.0000
      6 C          -2.4103   -0.1513   -1.8615 C.ar    1  UNL1        0.0000
      7 C          -1.6905   -0.0787   -0.6381 C.ar    1  UNL1        0.0000
      8 C          -0.2112   -0.0312   -0.6476 C.ar    1  UNL1        0.0000
      9 C           0.5772   -0.0523   -1.8102 C.ar    1  UNL1        0.0000
     10 N           1.9368   -0.0113   -1.8892 N.ar    1  UNL1        0.0000
     11 C           2.6569    0.0579   -0.7492 C.ar    1  UNL1        0.0000
     12 C           2.0040    0.0858    0.4748 C.ar    1  UNL1        0.0000
     13 C           0.5823    0.0417    0.5269 C.ar    1  UNL1        0.0000
     14 C          -0.2009    0.0636    1.7073 C.ar    1  UNL1        0.0000
     15 C           0.3547    0.1320    2.9672 C.ar    1  UNL1        0.0000
     16 S          -0.8312    0.1427    4.1950 S.2     1  UNL1        0.0000
     17 C          -2.0974    0.0556    3.0425 C.ar    1  UNL1        0.0000
     18 C          -1.6498    0.0181    1.7401 C.ar    1  UNL1        0.0000
     19 C          -2.4901   -0.0557    0.5732 C.ar    1  UNL1        0.0000
     20 C          -3.9205   -0.1059    0.4651 C.ar    1  UNL1        0.0000
     21 C           4.1349    0.0994   -0.9181 C.ar    1  UNL1        0.0000
     22 C           4.7099    0.0662   -2.2064 C.ar    1  UNL1        0.0000
     23 C           6.0945    0.1035   -2.4054 C.ar    1  UNL1        0.0000
     24 C           6.9510    0.1756   -1.3143 C.ar    1  UNL1        0.0000
     25 C           6.4216    0.2102   -0.0295 C.ar    1  UNL1        0.0000
     26 C           5.0340    0.1726    0.1643 C.ar    1  UNL1        0.0000
     27 H          -5.2838   -1.3114    2.6150 H       1  UNL1        0.0000
     28 H          -5.3634    1.1802    2.5140 H       1  UNL1        0.0000
     29 H          -7.6360   -0.2176    0.6392 H       1  UNL1        0.0000
     30 H          -6.5912   -0.2802   -1.7309 H       1  UNL1        0.0000
     31 H          -4.2783   -0.2545   -2.9303 H       1  UNL1        0.0000
     32 H          -1.8917   -0.1732   -2.8166 H       1  UNL1        0.0000
     33 H           0.1334   -0.1064   -2.7994 H       1  UNL1        0.0000
     34 H           2.5707    0.1410    1.3936 H       1  UNL1        0.0000
     35 H           1.3929    0.1773    3.2609 H       1  UNL1        0.0000
     36 H          -3.0927    0.0393    3.4466 H       1  UNL1        0.0000
     37 H           4.0680    0.0096   -3.0851 H       1  UNL1        0.0000
     38 H           6.4955    0.0758   -3.4151 H       1  UNL1        0.0000
     39 H           8.0266    0.2048   -1.4649 H       1  UNL1        0.0000
     40 H           7.0865    0.2667    0.8287 H       1  UNL1        0.0000
     41 H           4.6817    0.2026    1.1907 H       1  UNL1        0.0000
@<TRIPOS>BOND
     1     1     2    1
     2     2     3    2
     3     3     4    1
     4     4     5   ar
     5     5     6   ar
     6     6     7   ar
     7     7     8   ar
     8     8     9   ar
     9     9    10   ar
    10    10    11   ar
    11    11    12   ar
    12    12    13   ar
    13    13    14   ar
    14    14    15   ar
    15    15    16   ar
    16    16    17   ar
    17    17    18   ar
    18    18    19   ar
    19    19    20   ar
    20    11    21    1
    21    21    22   ar
    22    22    23   ar
    23    23    24   ar
    24    24    25   ar
    25    25    26   ar
    26    20     1    1
    27    26    21   ar
    28    20     4   ar
    29    19     7   ar
    30    13     8   ar
    31    18    14   ar
    32     1    27    1
    33     1    28    1
    34     2    29    1
    35     3    30    1
    36     5    31    1
    37     6    32    1
    38     9    33    1
    39    12    34    1
    40    15    35    1
    41    17    36    1
    42    22    37    1
    43    23    38    1
    44    24    39    1
    45    25    40    1
    46    26    41    1
