@<TRIPOS>MOLECULE
*****
 29 32 0 0 0
SMALL
GASTEIGER

@<TRIPOS>ATOM
      1 N          -0.5221    2.6190    2.3413 N.1     1  UNL1       -0.1908
      2 C          -1.3021    2.2167    1.5832 C.1     1  UNL1        0.1028
      3 C          -2.2533    1.7649    0.6249 C.ar    1  UNL1        0.0958
      4 C          -3.2433    2.6131    0.1743 C.ar    1  UNL1        0.0487
      5 N          -4.1792    2.2593   -0.7300 N.ar    1  UNL1       -0.2424
      6 C          -4.1103    0.9998   -1.1799 C.ar    1  UNL1        0.1166
      7 N          -3.1952    0.0913   -0.8120 N.ar    1  UNL1       -0.2340
      8 C          -2.2634    0.4863    0.0903 C.ar    1  UNL1        0.0949
      9 C          -1.3047   -0.5541    0.4492 C.ar    1  UNL1        0.0437
     10 C          -1.6745   -1.6935    1.1648 C.ar    1  UNL1        0.0388
     11 N          -0.8417   -2.6854    1.5565 N.ar    1  UNL1       -0.2619
     12 C           0.4675   -2.6052    1.2229 C.ar    1  UNL1        0.0374
     13 C           0.9493   -1.5232    0.4749 C.ar    1  UNL1        0.0276
     14 C           0.0547   -0.5172    0.0963 C.ar    1  UNL1        0.0598
     15 N           0.7770    0.3948   -0.6439 N.ar    1  UNL1       -0.3535
     16 C           2.0986    0.0291   -0.7271 C.ar    1  UNL1        0.0504
     17 C           3.1732    0.6535   -1.3567 C.ar    1  UNL1       -0.0196
     18 C           4.3852   -0.0100   -1.2410 C.ar    1  UNL1        0.0295
     19 N           4.5699   -1.1756   -0.5838 N.ar    1  UNL1       -0.2625
     20 C           3.5078   -1.7629    0.0209 C.ar    1  UNL1        0.0373
     21 C           2.2388   -1.1719   -0.0351 C.ar    1  UNL1        0.0270
     22 H          -3.3245    3.6371    0.5336 H       1  UNL1        0.0844
     23 H          -4.8567    0.6878   -1.9029 H       1  UNL1        0.1047
     24 H          -2.7110   -1.8424    1.4636 H       1  UNL1        0.0837
     25 H           1.0983   -3.4215    1.5570 H       1  UNL1        0.0836
     26 H           0.3924    1.2192   -1.0823 H       1  UNL1        0.1659
     27 H           3.0809    1.5865   -1.8969 H       1  UNL1        0.0653
     28 H           5.2825    0.4005   -1.6979 H       1  UNL1        0.0830
     29 H           3.7057   -2.6962    0.5358 H       1  UNL1        0.0836
@<TRIPOS>BOND
     1     1     2    3
     2     2     3    1
     3     3     4   ar
     4     4     5   ar
     5     5     6   ar
     6     6     7   ar
     7     7     8   ar
     8     8     9    1
     9     9    10   ar
    10    10    11   ar
    11    11    12   ar
    12    12    13   ar
    13    13    14   ar
    14    14    15   ar
    15    15    16   ar
    16    16    17   ar
    17    17    18   ar
    18    18    19   ar
    19    19    20   ar
    20    20    21   ar
    21     8     3   ar
    22    14     9   ar
    23    21    16   ar
    24    21    13   ar
    25     4    22    1
    26     6    23    1
    27    10    24    1
    28    12    25    1
    29    15    26    1
    30    17    27    1
    31    18    28    1
    32    20    29    1
