@<TRIPOS>MOLECULE
*****
 25 28 0 0 0
SMALL
GASTEIGER

@<TRIPOS>ATOM
      1 N          -3.2170    1.1217    2.6329 N.1     1  UNL1       -0.1908
      2 C          -2.9075    1.5680    1.6074 C.1     1  UNL1        0.1030
      3 C          -2.5998    2.1776    0.3567 C.ar    1  UNL1        0.1004
      4 C          -3.3735    3.2267   -0.0959 C.ar    1  UNL1        0.0489
      5 N          -3.1652    3.8698   -1.2635 N.ar    1  UNL1       -0.2424
      6 C          -2.1352    3.4318   -1.9967 C.ar    1  UNL1        0.1168
      7 N          -1.3179    2.4265   -1.6620 N.ar    1  UNL1       -0.2294
      8 C          -1.5611    1.8032   -0.4764 C.ar    1  UNL1        0.1460
      9 C          -0.6388    0.7087   -0.1543 C.ar    1  UNL1        0.2484
     10 N          -0.6100   -0.0802    0.9072 N.ar    1  UNL1       -0.2075
     11 C           0.4542   -0.9122    0.6786 C.ar    1  UNL1        0.1135
     12 C           0.9945   -1.9580    1.4310 C.ar    1  UNL1        0.0120
     13 C           2.0990   -2.6167    0.9081 C.ar    1  UNL1        0.1573
     14 O           2.7945   -3.6567    1.4501 O.2     1  UNL1       -0.4424
     15 C           3.7676   -3.9045    0.5264 C.ar    1  UNL1        0.1831
     16 N           3.7545   -3.1288   -0.5373 N.ar    1  UNL1       -0.2160
     17 C           2.6898   -2.2967   -0.3082 C.ar    1  UNL1        0.1129
     18 C           2.1480   -1.2505   -1.0593 C.ar    1  UNL1        0.0120
     19 C           1.0437   -0.5926   -0.5355 C.ar    1  UNL1        0.1580
     20 O           0.3495    0.4457   -1.0768 O.2     1  UNL1       -0.4339
     21 H          -4.2167    3.6016    0.4816 H       1  UNL1        0.0844
     22 H          -1.9470    3.9330   -2.9404 H       1  UNL1        0.1047
     23 H           0.5664   -2.2422    2.3852 H       1  UNL1        0.0677
     24 H           4.4525   -4.7094    0.7545 H       1  UNL1        0.1255
     25 H           2.5755   -0.9657   -2.0134 H       1  UNL1        0.0677
@<TRIPOS>BOND
     1     1     2    3
     2     2     3    1
     3     3     4   ar
     4     4     5   ar
     5     5     6   ar
     6     6     7   ar
     7     7     8   ar
     8     8     9    1
     9     9    10   ar
    10    10    11   ar
    11    11    12   ar
    12    12    13   ar
    13    13    14   ar
    14    14    15   ar
    15    15    16   ar
    16    16    17   ar
    17    17    18   ar
    18    18    19   ar
    19    19    20   ar
    20     8     3   ar
    21    20     9   ar
    22    19    11   ar
    23    17    13   ar
    24     4    21    1
    25     6    22    1
    26    12    23    1
    27    15    24    1
    28    18    25    1
