@<TRIPOS>MOLECULE
*****
 25 28 0 0 0
SMALL
GASTEIGER

@<TRIPOS>ATOM
      1 N          -2.8635   -2.5271   -1.3896 N.1     1  UNL1       -0.1908
      2 C          -3.0598   -1.4792   -0.9304 C.1     1  UNL1        0.1029
      3 C          -3.4048   -0.2095   -0.3810 C.ar    1  UNL1        0.0977
      4 C          -4.7366    0.1477   -0.3057 C.ar    1  UNL1        0.0488
      5 N          -5.1788    1.3200    0.1934 N.ar    1  UNL1       -0.2424
      6 C          -4.2344    2.1589    0.6314 C.ar    1  UNL1        0.1167
      7 N          -2.9166    1.9230    0.6097 N.ar    1  UNL1       -0.2320
      8 C          -2.5061    0.7294    0.0990 C.ar    1  UNL1        0.1164
      9 C          -1.0410    0.5145    0.0964 C.ar    1  UNL1        0.1290
     10 N          -0.4438   -0.5720   -0.3511 N.ar    1  UNL1       -0.2374
     11 C           0.9286   -0.4734   -0.2197 C.ar    1  UNL1        0.0801
     12 C           1.8663   -1.4439   -0.5937 C.ar    1  UNL1       -0.0194
     13 C           3.2291   -1.2153   -0.4047 C.ar    1  UNL1        0.0410
     14 S           4.5758   -2.2236   -0.7697 S.2     1  UNL1       -0.0753
     15 C           5.6287   -1.0174   -0.1635 C.ar    1  UNL1        0.0659
     16 N           5.0631    0.0780    0.2901 N.ar    1  UNL1       -0.2474
     17 C           3.6889   -0.0236    0.1572 C.ar    1  UNL1        0.0793
     18 C           2.7484    0.9453    0.5303 C.ar    1  UNL1       -0.0194
     19 C           1.3862    0.7150    0.3406 C.ar    1  UNL1        0.0417
     20 S           0.0408    1.7173    0.7028 S.2     1  UNL1       -0.0656
     21 H          -5.5233   -0.5185   -0.6559 H       1  UNL1        0.0844
     22 H          -4.5628    3.1096    1.0380 H       1  UNL1        0.1047
     23 H           1.5162   -2.3747   -1.0320 H       1  UNL1        0.0651
     24 H           6.7021   -1.1566   -0.1573 H       1  UNL1        0.0907
     25 H           3.0975    1.8762    0.9686 H       1  UNL1        0.0651
@<TRIPOS>BOND
     1     1     2    3
     2     2     3    1
     3     3     4   ar
     4     4     5   ar
     5     5     6   ar
     6     6     7   ar
     7     7     8   ar
     8     8     9    1
     9     9    10   ar
    10    10    11   ar
    11    11    12   ar
    12    12    13   ar
    13    13    14   ar
    14    14    15   ar
    15    15    16   ar
    16    16    17   ar
    17    17    18   ar
    18    18    19   ar
    19    19    20   ar
    20     8     3   ar
    21    20     9   ar
    22    19    11   ar
    23    17    13   ar
    24     4    21    1
    25     6    22    1
    26    12    23    1
    27    15    24    1
    28    18    25    1
