@<TRIPOS>MOLECULE
*****
 23 25 0 0 0
SMALL
GASTEIGER

@<TRIPOS>ATOM
      1 N          -1.9640   -3.4597   -1.5045 N.1     1  UNL1       -0.1908
      2 C          -2.2487   -2.5664   -0.8210 C.1     1  UNL1        0.1029
      3 C          -2.6589   -1.4968    0.0229 C.ar    1  UNL1        0.0977
      4 C          -3.9629   -1.5171    0.4897 C.ar    1  UNL1        0.0488
      5 N          -4.5013   -0.5808    1.2944 N.ar    1  UNL1       -0.2424
      6 C          -3.6846    0.4164    1.6397 C.ar    1  UNL1        0.1167
      7 N          -2.4116    0.5386    1.2503 N.ar    1  UNL1       -0.2320
      8 C          -1.8872   -0.4220    0.4351 C.ar    1  UNL1        0.1164
      9 C          -0.4630   -0.1301    0.0999 C.ar    1  UNL1        0.1290
     10 N           0.1788    0.9347    0.5532 N.ar    1  UNL1       -0.2374
     11 C           1.4834    0.9748    0.0990 C.ar    1  UNL1        0.0789
     12 C           2.4347    1.9715    0.3943 C.ar    1  UNL1       -0.0352
     13 C           3.7244    1.8802   -0.1395 C.ar    1  UNL1       -0.0597
     14 C           4.0728    0.8116   -0.9596 C.ar    1  UNL1       -0.0606
     15 C           3.1450   -0.1890   -1.2661 C.ar    1  UNL1       -0.0459
     16 C           1.8537   -0.0849   -0.7234 C.ar    1  UNL1        0.0396
     17 S           0.5095   -1.1332   -0.9074 S.2     1  UNL1       -0.0656
     18 H          -4.6478   -2.3206    0.2214 H       1  UNL1        0.0844
     19 H          -4.0827    1.1899    2.2873 H       1  UNL1        0.1047
     20 H           2.1566    2.8026    1.0348 H       1  UNL1        0.0639
     21 H           4.4566    2.6509    0.0901 H       1  UNL1        0.0618
     22 H           5.0795    0.7520   -1.3686 H       1  UNL1        0.0618
     23 H           3.4177   -1.0227   -1.9062 H       1  UNL1        0.0629
@<TRIPOS>BOND
     1     1     2    3
     2     2     3    1
     3     3     4   ar
     4     4     5   ar
     5     5     6   ar
     6     6     7   ar
     7     7     8   ar
     8     8     9    1
     9     9    10   ar
    10    10    11   ar
    11    11    12   ar
    12    12    13   ar
    13    13    14   ar
    14    14    15   ar
    15    15    16   ar
    16    16    17   ar
    17     8     3   ar
    18    17     9   ar
    19    16    11   ar
    20     4    18    1
    21     6    19    1
    22    12    20    1
    23    13    21    1
    24    14    22    1
    25    15    23    1
