@<TRIPOS>MOLECULE
*****
 25 28 0 0 0
SMALL
GASTEIGER

@<TRIPOS>ATOM
      1 N          -0.3954   -0.3933    4.4924 N.1     1  UNL1       -0.1908
      2 C           0.4549   -0.6845    3.7583 C.1     1  UNL1        0.1029
      3 C           1.5665   -1.0864    2.9623 C.ar    1  UNL1        0.0987
      4 C           2.6618   -1.6646    3.5697 C.ar    1  UNL1        0.0488
      5 N           3.7634   -2.0795    2.9076 N.ar    1  UNL1       -0.2424
      6 C           3.7522   -1.9008    1.5819 C.ar    1  UNL1        0.1168
      7 N           2.7512   -1.3530    0.8777 N.ar    1  UNL1       -0.2311
      8 C           1.6625   -0.9506    1.5906 C.ar    1  UNL1        0.1266
      9 C           0.6183   -0.3648    0.7469 C.ar    1  UNL1        0.1619
     10 N          -0.5535    0.1200    1.1256 N.ar    1  UNL1       -0.2052
     11 C          -1.1629    0.5480   -0.0229 C.ar    1  UNL1        0.1998
     12 N          -2.3837    1.1216   -0.1467 N.ar    1  UNL1       -0.2020
     13 C          -2.7255    1.4438   -1.4181 C.ar    1  UNL1        0.1992
     14 N          -3.8840    2.0299   -1.8513 N.ar    1  UNL1       -0.2152
     15 C          -3.7393    2.1344   -3.1570 C.ar    1  UNL1        0.0973
     16 N          -2.5351    1.6399   -3.5866 N.ar    1  UNL1       -0.3279
     17 C          -1.8689    1.1920   -2.4868 C.ar    1  UNL1        0.1791
     18 N          -0.6475    0.6240   -2.4086 N.ar    1  UNL1       -0.2052
     19 C          -0.3508    0.3215   -1.1280 C.ar    1  UNL1        0.1796
     20 N           0.7698   -0.2553   -0.6232 N.ar    1  UNL1       -0.3202
     21 H           2.6962   -1.8211    4.6466 H       1  UNL1        0.0844
     22 H           4.6285   -2.2276    1.0317 H       1  UNL1        0.1047
     23 H          -4.4663    2.5560   -3.8393 H       1  UNL1        0.1028
     24 H          -2.1943    1.6081   -4.5355 H       1  UNL1        0.1683
     25 H           1.5817   -0.5575   -1.1412 H       1  UNL1        0.1689
@<TRIPOS>BOND
     1     1     2    3
     2     2     3    1
     3     3     4   ar
     4     4     5   ar
     5     5     6   ar
     6     6     7   ar
     7     7     8   ar
     8     8     9    1
     9     9    10   ar
    10    10    11   ar
    11    11    12   ar
    12    12    13   ar
    13    13    14   ar
    14    14    15   ar
    15    15    16   ar
    16    16    17   ar
    17    17    18   ar
    18    18    19   ar
    19    19    20   ar
    20     8     3   ar
    21    20     9   ar
    22    19    11   ar
    23    17    13   ar
    24     4    21    1
    25     6    22    1
    26    15    23    1
    27    16    24    1
    28    20    25    1
