@<TRIPOS>MOLECULE
*****
 31 33 0 0 0
SMALL
GASTEIGER

@<TRIPOS>ATOM
      1 N          -1.8007   -4.0424   -0.9088 N.1     1  UNL1       -0.1891
      2 C          -1.1582   -3.1022   -0.6763 C.1     1  UNL1        0.1244
      3 C          -0.4001   -1.9321   -0.3821 C.ar    1  UNL1        0.2011
      4 N           0.9727   -1.9225   -0.4973 N.ar    1  UNL1       -0.1963
      5 C           1.2992   -0.6953   -0.1412 C.ar    1  UNL1        0.2307
      6 C           2.6237   -0.0825   -0.0637 C.ar    1  UNL1        0.0372
      7 C           2.8024    1.2530    0.3359 C.ar    1  UNL1       -0.0468
      8 C           4.0820    1.8125    0.4007 C.ar    1  UNL1       -0.0257
      9 C           5.1868    1.0394    0.0665 C.ar    1  UNL1        0.1234
     10 F           6.4117    1.5768    0.1291 F       1  UNL1       -0.2055
     11 C           5.0379   -0.2827   -0.3316 C.ar    1  UNL1       -0.0257
     12 C           3.7589   -0.8420   -0.3964 C.ar    1  UNL1       -0.0468
     13 O           0.2345    0.0950    0.1996 O.2     1  UNL1       -0.4204
     14 C          -0.8682   -0.7041    0.0437 C.ar    1  UNL1        0.2274
     15 N          -2.0698   -0.1519    0.3179 N.pl3   1  UNL1       -0.2991
     16 C          -2.2222    1.1938    0.8531 C.3     1  UNL1        0.0150
     17 C          -3.6687    1.2252    1.3411 C.3     1  UNL1       -0.0357
     18 C          -4.3740    0.2698    0.3914 C.3     1  UNL1       -0.0357
     19 C          -3.3448   -0.8405    0.1890 C.3     1  UNL1        0.0150
     20 H           1.9465    1.8709    0.6003 H       1  UNL1        0.0626
     21 H           4.2216    2.8439    0.7090 H       1  UNL1        0.0646
     22 H           5.9136   -0.8702   -0.5887 H       1  UNL1        0.0646
     23 H           3.6493   -1.8796   -0.7095 H       1  UNL1        0.0626
     24 H          -1.5323    1.4031    1.6778 H       1  UNL1        0.0464
     25 H          -2.0655    1.9321    0.0584 H       1  UNL1        0.0464
     26 H          -4.0940    2.2325    1.3269 H       1  UNL1        0.0281
     27 H          -3.7275    0.8416    2.3670 H       1  UNL1        0.0281
     28 H          -5.3215   -0.1047    0.7886 H       1  UNL1        0.0281
     29 H          -4.5758    0.7735   -0.5618 H       1  UNL1        0.0281
     30 H          -3.4433   -1.6031    0.9698 H       1  UNL1        0.0464
     31 H          -3.4741   -1.3072   -0.7928 H       1  UNL1        0.0464
@<TRIPOS>BOND
     1     1     2    3
     2     2     3    1
     3     3     4   ar
     4     4     5   ar
     5     5     6    1
     6     6     7   ar
     7     7     8   ar
     8     8     9   ar
     9     9    10    1
    10     9    11   ar
    11    11    12   ar
    12     5    13   ar
    13    13    14   ar
    14    14    15    1
    15    15    16    1
    16    16    17    1
    17    17    18    1
    18    18    19    1
    19    14     3   ar
    20    19    15    1
    21    12     6   ar
    22     7    20    1
    23     8    21    1
    24    11    22    1
    25    12    23    1
    26    16    24    1
    27    16    25    1
    28    17    26    1
    29    17    27    1
    30    18    28    1
    31    18    29    1
    32    19    30    1
    33    19    31    1
