@<TRIPOS>MOLECULE
*****
 29 30 0 0 0
SMALL
GASTEIGER

@<TRIPOS>ATOM
      1 N           6.4450    0.6744    2.5385 N.1     1  UNL1       -0.1961
      2 C           5.6235    1.4415    2.2492 C.1     1  UNL1        0.0719
      3 C           4.5697    2.4064    1.9449 C.3     1  UNL1        0.1114
      4 C           3.6516    1.8612    0.8766 C.2     1  UNL1        0.2332
      5 O           3.8087    2.1913   -0.2953 O.2     1  UNL1       -0.2743
      6 N           2.6857    1.0180    1.3761 N.am    1  UNL1       -0.2525
      7 C           1.7081    0.4208    0.6353 C.ar    1  UNL1        0.2407
      8 N           1.5181    0.6076   -0.6985 N.ar    1  UNL1       -0.2019
      9 C           0.4800   -0.1465   -0.9705 C.ar    1  UNL1        0.1166
     10 N           0.0533   -0.7518    0.1693 N.ar    1  UNL1       -0.2458
     11 C          -1.0141   -1.7251    0.3290 C.3     1  UNL1        0.0696
     12 C          -2.2911   -1.3156   -0.3644 C.ar    1  UNL1       -0.0078
     13 C          -2.6518   -1.9523   -1.5669 C.ar    1  UNL1       -0.0554
     14 C          -3.8162   -1.5903   -2.2468 C.ar    1  UNL1       -0.0614
     15 C          -4.6384   -0.5893   -1.7378 C.ar    1  UNL1       -0.0604
     16 C          -4.2982    0.0498   -0.5466 C.ar    1  UNL1       -0.0431
     17 C          -3.1334   -0.3095    0.1378 C.ar    1  UNL1        0.0459
     18 CL         -2.7828    0.5218    1.6098 Cl      1  UNL1       -0.0832
     19 N           0.8421   -0.4171    1.2115 N.ar    1  UNL1       -0.1332
     20 H           4.9972    3.3498    1.5879 H       1  UNL1        0.0513
     21 H           3.9868    2.6438    2.8418 H       1  UNL1        0.0513
     22 H           2.6556    0.7479    2.3474 H       1  UNL1        0.1578
     23 H           0.0204   -0.2792   -1.9399 H       1  UNL1        0.1044
     24 H          -0.6295   -2.6705   -0.0721 H       1  UNL1        0.0559
     25 H          -1.1891   -1.8830    1.3993 H       1  UNL1        0.0559
     26 H          -2.0269   -2.7384   -1.9885 H       1  UNL1        0.0621
     27 H          -4.0822   -2.0900   -3.1759 H       1  UNL1        0.0618
     28 H          -5.5451   -0.3060   -2.2673 H       1  UNL1        0.0618
     29 H          -4.9470    0.8302   -0.1554 H       1  UNL1        0.0632
@<TRIPOS>BOND
     1     1     2    3
     2     2     3    1
     3     3     4    1
     4     4     5    2
     5     4     6   am
     6     6     7    1
     7     7     8   ar
     8     8     9   ar
     9     9    10   ar
    10    10    11    1
    11    11    12    1
    12    12    13   ar
    13    13    14   ar
    14    14    15   ar
    15    15    16   ar
    16    16    17   ar
    17    17    18    1
    18    10    19   ar
    19    19     7   ar
    20    17    12   ar
    21     3    20    1
    22     3    21    1
    23     6    22    1
    24     9    23    1
    25    11    24    1
    26    11    25    1
    27    13    26    1
    28    14    27    1
    29    15    28    1
    30    16    29    1
