@<TRIPOS>MOLECULE
*****
 47 49 0 0 0
SMALL
GASTEIGER

@<TRIPOS>ATOM
      1 N           7.7699    0.0677    0.6718 N.1     1  UNL1       -0.1965
      2 C           6.9329    0.6012    0.0694 C.1     1  UNL1        0.0638
      3 C           5.9144    1.3201   -0.7076 C.3     1  UNL1        0.0475
      4 C           4.5263    1.2382   -0.0573 C.3     1  UNL1        0.0117
      5 N           3.9380   -0.1142   -0.0533 N.3     1  UNL1       -0.2990
      6 C           2.8111   -0.2047    0.9044 C.3     1  UNL1        0.0118
      7 C           1.5081    0.4852    0.4325 C.3     1  UNL1        0.0120
      8 N           1.0269    0.0627   -0.9013 N.3     1  UNL1       -0.2956
      9 C           0.4339   -1.2914   -0.8685 C.3     1  UNL1        0.0276
     10 C          -0.8745   -1.3550   -0.1062 C.ar    1  UNL1        0.0086
     11 C          -1.9413   -0.5159   -0.4832 C.ar    1  UNL1       -0.0461
     12 C          -3.1791   -0.5435    0.1821 C.ar    1  UNL1       -0.0174
     13 C          -4.2805    0.3450   -0.2251 C.ar    1  UNL1       -0.0179
     14 C          -4.7191    0.3898   -1.5592 C.ar    1  UNL1       -0.0540
     15 C          -5.7660    1.2308   -1.9467 C.ar    1  UNL1       -0.0612
     16 C          -6.3922    2.0436   -1.0055 C.ar    1  UNL1       -0.0617
     17 C          -5.9725    2.0163    0.3219 C.ar    1  UNL1       -0.0612
     18 C          -4.9261    1.1739    0.7078 C.ar    1  UNL1       -0.0540
     19 C          -3.3324   -1.4457    1.2460 C.ar    1  UNL1       -0.0506
     20 C          -2.2884   -2.2904    1.6321 C.ar    1  UNL1       -0.0193
     21 C          -1.0711   -2.2416    0.9558 C.ar    1  UNL1        0.1213
     22 O          -0.0506   -3.0675    1.3338 O.3     1  UNL1       -0.5065
     23 C           2.1469    0.1196   -1.8617 C.3     1  UNL1        0.0120
     24 C           3.4602   -0.5501   -1.3834 C.3     1  UNL1        0.0118
     25 H           6.2038    2.3766   -0.7665 H       1  UNL1        0.0430
     26 H           5.8962    0.9529   -1.7383 H       1  UNL1        0.0430
     27 H           3.8617    1.9554   -0.5529 H       1  UNL1        0.0436
     28 H           4.6332    1.5874    0.9790 H       1  UNL1        0.0436
     29 H           2.6112   -1.2667    1.0940 H       1  UNL1        0.0439
     30 H           3.1085    0.2052    1.8777 H       1  UNL1        0.0439
     31 H           1.6768    1.5693    0.3958 H       1  UNL1        0.0439
     32 H           0.7311    0.3503    1.1937 H       1  UNL1        0.0439
     33 H           1.1482   -2.0317   -0.4935 H       1  UNL1        0.0477
     34 H           0.1956   -1.6058   -1.8941 H       1  UNL1        0.0477
     35 H          -1.7875    0.1863   -1.3025 H       1  UNL1        0.0628
     36 H          -4.2499   -0.2441   -2.3090 H       1  UNL1        0.0624
     37 H          -6.0914    1.2480   -2.9835 H       1  UNL1        0.0618
     38 H          -7.2054    2.6987   -1.3064 H       1  UNL1        0.0618
     39 H          -6.4556    2.6528    1.0586 H       1  UNL1        0.0618
     40 H          -4.6054    1.1781    1.7475 H       1  UNL1        0.0624
     41 H          -4.2806   -1.5046    1.7768 H       1  UNL1        0.0625
     42 H          -2.4474   -2.9775    2.4574 H       1  UNL1        0.0654
     43 H          -0.3526   -3.6221    2.0720 H       1  UNL1        0.2921
     44 H           1.8456   -0.3168   -2.8223 H       1  UNL1        0.0439
     45 H           2.3464    1.1761   -2.0810 H       1  UNL1        0.0439
     46 H           4.2351   -0.4052   -2.1436 H       1  UNL1        0.0439
     47 H           3.3080   -1.6365   -1.3429 H       1  UNL1        0.0439
@<TRIPOS>BOND
     1     1     2    3
     2     2     3    1
     3     3     4    1
     4     4     5    1
     5     5     6    1
     6     6     7    1
     7     7     8    1
     8     8     9    1
     9     9    10    1
    10    10    11   ar
    11    11    12   ar
    12    12    13    1
    13    13    14   ar
    14    14    15   ar
    15    15    16   ar
    16    16    17   ar
    17    17    18   ar
    18    12    19   ar
    19    19    20   ar
    20    20    21   ar
    21    21    22    1
    22     8    23    1
    23    23    24    1
    24    24     5    1
    25    21    10   ar
    26    18    13   ar
    27     3    25    1
    28     3    26    1
    29     4    27    1
    30     4    28    1
    31     6    29    1
    32     6    30    1
    33     7    31    1
    34     7    32    1
    35     9    33    1
    36     9    34    1
    37    11    35    1
    38    14    36    1
    39    15    37    1
    40    16    38    1
    41    17    39    1
    42    18    40    1
    43    19    41    1
    44    20    42    1
    45    22    43    1
    46    23    44    1
    47    23    45    1
    48    24    46    1
    49    24    47    1
