@<TRIPOS>MOLECULE
*****
 36 38 0 0 0
SMALL
GASTEIGER

@<TRIPOS>ATOM
      1 N          -5.7552    1.7776    1.8617 N.2     1  UNL1       -0.0994
      2 C          -5.6214    1.1912    0.7148 C.2     1  UNL1        0.3082
      3 C          -4.3604    0.5207    0.2976 C.ar    1  UNL1        0.0667
      4 C          -3.1243    1.0714    0.6676 C.ar    1  UNL1       -0.0229
      5 C          -1.9690    0.4073    0.2339 C.ar    1  UNL1        0.0477
      6 C          -2.0101   -0.7554   -0.5313 C.ar    1  UNL1        0.0003
      7 C          -3.2614   -1.2901   -0.8934 C.ar    1  UNL1       -0.0518
      8 C          -4.4303   -0.6410   -0.4761 C.ar    1  UNL1       -0.0462
      9 C          -0.6634   -1.1412   -0.7720 C.ar    1  UNL1       -0.0287
     10 C           0.1764   -0.2169   -0.1740 C.ar    1  UNL1        0.0475
     11 C           1.6370   -0.1555   -0.1148 C.ar    1  UNL1       -0.0016
     12 C           2.3123    1.0729   -0.1592 C.ar    1  UNL1       -0.0518
     13 C           3.7097    1.1232   -0.1015 C.ar    1  UNL1       -0.0463
     14 C           4.4465   -0.0596    0.0017 C.ar    1  UNL1        0.0647
     15 C           5.9323   -0.0220    0.0524 C.2     1  UNL1        0.3081
     16 N           6.6637   -1.0076   -0.5393 N.pl3   1  UNL1       -0.2466
     17 N           6.5893    0.9274    0.6381 N.2     1  UNL1       -0.0994
     18 C           3.7856   -1.2900    0.0366 C.ar    1  UNL1       -0.0463
     19 C           2.3890   -1.3348   -0.0210 C.ar    1  UNL1       -0.0518
     20 N          -0.6416    0.7092    0.4362 N.ar    1  UNL1       -0.3541
     21 N          -6.6943    1.2169   -0.1247 N.pl3   1  UNL1       -0.2466
     22 H          -4.9159    1.6575    2.4357 H       1  UNL1        0.3633
     23 H          -3.0606    1.9883    1.2435 H       1  UNL1        0.0647
     24 H          -3.3224   -2.1984   -1.4860 H       1  UNL1        0.0624
     25 H          -5.3958   -1.0643   -0.7437 H       1  UNL1        0.0626
     26 H          -0.3428   -2.0057   -1.3391 H       1  UNL1        0.0645
     27 H           1.7630    2.0051   -0.2671 H       1  UNL1        0.0624
     28 H           4.2099    2.0856   -0.1687 H       1  UNL1        0.0626
     29 H           6.2966   -1.3652   -1.4132 H       1  UNL1        0.2884
     30 H           7.6402   -0.7364   -0.6109 H       1  UNL1        0.2884
     31 H           5.9570    1.5910    1.0935 H       1  UNL1        0.3633
     32 H           4.3475   -2.2161    0.1304 H       1  UNL1        0.0626
     33 H           1.8928   -2.3020    0.0249 H       1  UNL1        0.0624
     34 H          -0.3134    1.4926    0.9824 H       1  UNL1        0.1659
     35 H          -7.3861    1.8883    0.1950 H       1  UNL1        0.2884
     36 H          -6.4804    1.3173   -1.1099 H       1  UNL1        0.2884
@<TRIPOS>BOND
     1     1     2    2
     2     2     3    1
     3     3     4   ar
     4     4     5   ar
     5     5     6   ar
     6     6     7   ar
     7     7     8   ar
     8     6     9   ar
     9     9    10   ar
    10    10    11    1
    11    11    12   ar
    12    12    13   ar
    13    13    14   ar
    14    14    15    1
    15    15    16    1
    16    15    17    2
    17    14    18   ar
    18    18    19   ar
    19    10    20   ar
    20     2    21    1
    21     8     3   ar
    22    20     5   ar
    23    19    11   ar
    24     1    22    1
    25     4    23    1
    26     7    24    1
    27     8    25    1
    28     9    26    1
    29    12    27    1
    30    13    28    1
    31    16    29    1
    32    16    30    1
    33    17    31    1
    34    18    32    1
    35    19    33    1
    36    20    34    1
    37    21    35    1
    38    21    36    1
