@<TRIPOS>MOLECULE
*****
 31 33 0 0 0
SMALL
GASTEIGER

@<TRIPOS>ATOM
      1 N           3.1107    0.4897    2.7076 N.2     1  UNL1       -0.2975
      2 C           3.0226    0.2764    1.4336 C.2     1  UNL1        0.0821
      3 C           4.2070    0.0775    0.5696 C.2     1  UNL1       -0.0348
      4 C           4.0391   -0.1211   -0.7469 C.2     1  UNL1       -0.0576
      5 C           2.7391   -0.1363   -1.3871 C.2     1  UNL1       -0.0340
      6 C           1.6141    0.0404   -0.6922 C.2     1  UNL1        0.0941
      7 C           1.6825    0.2120    0.7672 C.2     1  UNL1        0.1112
      8 N           0.5471    0.2880    1.4159 N.2     1  UNL1       -0.2498
      9 C          -0.4668    0.1089    0.3000 C.3     1  UNL1        0.1578
     10 C          -1.2284   -1.1990    0.5988 C.3     1  UNL1       -0.0070
     11 C          -2.5535   -1.3500   -0.1512 C.3     1  UNL1       -0.0491
     12 C          -3.4211   -0.1014   -0.0530 C.3     1  UNL1       -0.0528
     13 C          -2.6624    1.1450   -0.4919 C.3     1  UNL1       -0.0491
     14 C          -1.3928    1.3367    0.3329 C.3     1  UNL1       -0.0070
     15 N           0.2813    0.0827   -0.9916 N.4     1  UNL1       -0.2259
     16 O          -0.2086   -0.7372   -2.0019 O.3     1  UNL1       -0.2843
     17 H           2.1477    0.5834    3.0734 H       1  UNL1        0.1868
     18 H           5.1792    0.0967    1.0457 H       1  UNL1        0.0639
     19 H           4.9058   -0.2717   -1.3859 H       1  UNL1        0.0619
     20 H           2.7001   -0.2871   -2.4610 H       1  UNL1        0.0639
     21 H          -0.5932   -2.0709    0.3975 H       1  UNL1        0.0307
     22 H          -1.4540   -1.2360    1.6739 H       1  UNL1        0.0307
     23 H          -2.3707   -1.5811   -1.2057 H       1  UNL1        0.0267
     24 H          -3.1025   -2.2073    0.2560 H       1  UNL1        0.0267
     25 H          -3.7652    0.0241    0.9810 H       1  UNL1        0.0265
     26 H          -4.3160   -0.2261   -0.6731 H       1  UNL1        0.0265
     27 H          -3.3070    2.0239   -0.3774 H       1  UNL1        0.0267
     28 H          -2.4116    1.0726   -1.5566 H       1  UNL1        0.0267
     29 H          -0.8606    2.2291   -0.0204 H       1  UNL1        0.0307
     30 H          -1.6829    1.5467    1.3714 H       1  UNL1        0.0307
     31 H          -0.3789   -0.1086   -2.7284 H       1  UNL1        0.2445
@<TRIPOS>BOND
     1     1     2    2
     2     2     3    1
     3     3     4    2
     4     4     5    1
     5     5     6    2
     6     6     7    1
     7     7     8    2
     8     8     9    1
     9     9    10    1
    10    10    11    1
    11    11    12    1
    12    12    13    1
    13    13    14    1
    14     9    15    1
    15    15    16    1
    16     7     2    1
    17    14     9    1
    18    15     6    1
    19     1    17    1
    20     3    18    1
    21     4    19    1
    22     5    20    1
    23    10    21    1
    24    10    22    1
    25    11    23    1
    26    11    24    1
    27    12    25    1
    28    12    26    1
    29    13    27    1
    30    13    28    1
    31    14    29    1
    32    14    30    1
    33    16    31    1
