@<TRIPOS>MOLECULE
*****
 47 54 0 0 0
SMALL
GASTEIGER

@<TRIPOS>ATOM
      1 SI         -5.5578   -1.1861    0.5720 Si      1  UNL1        0.0000
      2 C          -6.7228    0.2162    0.2074 C.2     1  UNL1        0.0000
      3 C          -6.0782    1.3086   -0.2272 C.2     1  UNL1        0.0000
      4 C          -4.6196    1.1438   -0.2961 C.ar    1  UNL1        0.0000
      5 C          -3.7554    2.1479   -0.6144 C.ar    1  UNL1        0.0000
      6 N          -2.4238    1.9802   -0.5734 N.ar    1  UNL1        0.0000
      7 C          -1.8592    0.7933   -0.2426 C.ar    1  UNL1        0.0000
      8 C          -2.6446   -0.3653    0.0042 C.ar    1  UNL1        0.0000
      9 C          -4.0676   -0.1220    0.0244 C.ar    1  UNL1        0.0000
     10 C          -1.9543   -1.6268    0.2292 C.ar    1  UNL1        0.0000
     11 C          -2.6183   -2.8847    0.2394 C.ar    1  UNL1        0.0000
     12 C          -2.0007   -4.1002    0.5325 C.ar    1  UNL1        0.0000
     13 C          -0.6575   -4.1140    0.8095 C.ar    1  UNL1        0.0000
     14 C           0.0536   -2.9199    0.7353 C.ar    1  UNL1        0.0000
     15 C          -0.5403   -1.6621    0.4132 C.ar    1  UNL1        0.0000
     16 C           0.2410   -0.4736    0.2529 C.ar    1  UNL1        0.0000
     17 C           1.6903   -0.4831    0.4234 C.ar    1  UNL1        0.0000
     18 C           2.5837    0.5970    0.2523 C.ar    1  UNL1        0.0000
     19 C           4.0188    0.4844    0.4120 C.ar    1  UNL1        0.0000
     20 S           4.7101    0.0874    1.9642 S.2     1  UNL1        0.0000
     21 C           6.3431    0.1376    1.3790 C.ar    1  UNL1        0.0000
     22 C           6.2951    0.4375    0.0689 C.ar    1  UNL1        0.0000
     23 O           7.3563    0.5690   -0.7717 O.2     1  UNL1        0.0000
     24 C           6.6860    0.8662   -1.9453 C.ar    1  UNL1        0.0000
     25 C           5.2915    0.9110   -1.8154 C.ar    1  UNL1        0.0000
     26 C           5.0430    0.6252   -0.4611 C.ar    1  UNL1        0.0000
     27 C           1.9179    1.7596   -0.1242 C.ar    1  UNL1        0.0000
     28 C           2.5611    2.9603   -0.3301 C.ar    1  UNL1        0.0000
     29 S           1.4728    4.1937   -0.7872 S.2     1  UNL1        0.0000
     30 C           0.1342    3.1270   -0.6815 C.ar    1  UNL1        0.0000
     31 C           0.4806    1.8446   -0.3065 C.ar    1  UNL1        0.0000
     32 C          -0.4411    0.7366   -0.1179 C.ar    1  UNL1        0.0000
     33 H          -5.8108   -2.3333   -0.3358 H       1  UNL1        0.0000
     34 H          -5.5140   -1.5224    2.0158 H       1  UNL1        0.0000
     35 H          -7.7888    0.1149    0.3421 H       1  UNL1        0.0000
     36 H          -6.5610    2.2398   -0.4943 H       1  UNL1        0.0000
     37 H          -4.0926    3.1438   -0.8807 H       1  UNL1        0.0000
     38 H          -3.6561   -2.9718   -0.0475 H       1  UNL1        0.0000
     39 H          -2.5744   -5.0228    0.5291 H       1  UNL1        0.0000
     40 H          -0.1490   -5.0438    1.0480 H       1  UNL1        0.0000
     41 H           1.1171   -3.0168    0.9294 H       1  UNL1        0.0000
     42 H           2.1821   -1.4137    0.7002 H       1  UNL1        0.0000
     43 H           7.2084   -0.0487    1.9978 H       1  UNL1        0.0000
     44 H           7.3391    1.0202   -2.7946 H       1  UNL1        0.0000
     45 H           4.5835    1.1227   -2.6041 H       1  UNL1        0.0000
     46 H           3.6120    3.1980   -0.2404 H       1  UNL1        0.0000
     47 H          -0.8334    3.5446   -0.9096 H       1  UNL1        0.0000
@<TRIPOS>BOND
     1     1     2    1
     2     2     3    2
     3     3     4    1
     4     4     5   ar
     5     5     6   ar
     6     6     7   ar
     7     7     8   ar
     8     8     9   ar
     9     8    10   ar
    10    10    11   ar
    11    11    12   ar
    12    12    13   ar
    13    13    14   ar
    14    14    15   ar
    15    15    16   ar
    16    16    17   ar
    17    17    18   ar
    18    18    19    1
    19    19    20   ar
    20    20    21   ar
    21    21    22   ar
    22    22    23   ar
    23    23    24   ar
    24    24    25   ar
    25    25    26   ar
    26    18    27   ar
    27    27    28   ar
    28    28    29   ar
    29    29    30   ar
    30    30    31   ar
    31    31    32   ar
    32     9     1    1
    33    15    10   ar
    34    32    16   ar
    35     9     4   ar
    36    26    19   ar
    37    31    27   ar
    38    32     7   ar
    39    26    22   ar
    40     1    33    1
    41     1    34    1
    42     2    35    1
    43     3    36    1
    44     5    37    1
    45    11    38    1
    46    12    39    1
    47    13    40    1
    48    14    41    1
    49    17    42    1
    50    21    43    1
    51    24    44    1
    52    25    45    1
    53    28    46    1
    54    30    47    1
