@<TRIPOS>MOLECULE
*****
 38 41 0 0 0
SMALL
GASTEIGER

@<TRIPOS>ATOM
      1 N          -0.4383    4.9019    0.2379 N.2     1  UNL1       -0.2924
      2 C          -0.8263    3.6755    0.3365 C.ar    1  UNL1        0.0972
      3 C           0.1213    2.5746    0.1251 C.ar    1  UNL1       -0.0075
      4 C          -0.1550    1.2525    0.0753 C.ar    1  UNL1        0.0601
      5 C           1.0138    0.2677   -0.1433 C.3     1  UNL1        0.1062
      6 O           0.7027   -0.5341   -1.2826 O.3     1  UNL1       -0.3825
      7 C           2.3975    0.9041   -0.4884 C.3     1  UNL1       -0.0184
      8 C           3.4967   -0.1430   -0.7024 C.3     1  UNL1       -0.0501
      9 C           3.6505   -1.0456    0.5150 C.3     1  UNL1       -0.0529
     10 C           2.3208   -1.6655    0.9254 C.3     1  UNL1       -0.0501
     11 C           1.2378   -0.6020    1.1199 C.3     1  UNL1       -0.0184
     12 N          -1.5096    0.8047    0.2277 N.ar    1  UNL1       -0.2878
     13 C          -2.5801    1.6549    0.5202 C.ar    1  UNL1        0.1805
     14 N          -3.7340    1.0526    0.6387 N.ar    1  UNL1       -0.2212
     15 C          -3.4721   -0.2544    0.4020 C.ar    1  UNL1        0.0905
     16 C          -4.3903   -1.3190    0.4012 C.ar    1  UNL1       -0.0342
     17 C          -3.9448   -2.6088    0.1225 C.ar    1  UNL1       -0.0596
     18 C          -2.6038   -2.8312   -0.1535 C.ar    1  UNL1       -0.0597
     19 C          -1.6775   -1.7782   -0.1547 C.ar    1  UNL1       -0.0357
     20 C          -2.1149   -0.4693    0.1344 C.ar    1  UNL1        0.0742
     21 S          -2.4632    3.3629    0.7532 S.2     1  UNL1       -0.0322
     22 H          -1.2524    5.4990    0.4336 H       1  UNL1        0.1873
     23 H           1.1253    2.9656   -0.0019 H       1  UNL1        0.0662
     24 H           0.5918    0.0558   -2.0488 H       1  UNL1        0.2107
     25 H           2.3232    1.4973   -1.4091 H       1  UNL1        0.0297
     26 H           2.7263    1.5728    0.3174 H       1  UNL1        0.0297
     27 H           3.2701   -0.7505   -1.5867 H       1  UNL1        0.0266
     28 H           4.4478    0.3630   -0.9044 H       1  UNL1        0.0266
     29 H           4.0514   -0.4605    1.3520 H       1  UNL1        0.0265
     30 H           4.3789   -1.8359    0.3019 H       1  UNL1        0.0265
     31 H           1.9998   -2.3883    0.1658 H       1  UNL1        0.0266
     32 H           2.4537   -2.2258    1.8581 H       1  UNL1        0.0266
     33 H           1.5209    0.0457    1.9612 H       1  UNL1        0.0297
     34 H           0.3268   -1.1140    1.4374 H       1  UNL1        0.0297
     35 H          -5.4366   -1.1250    0.6138 H       1  UNL1        0.0639
     36 H          -4.6493   -3.4362    0.1184 H       1  UNL1        0.0618
     37 H          -2.2608   -3.8402   -0.3754 H       1  UNL1        0.0618
     38 H          -0.6482   -2.0230   -0.3793 H       1  UNL1        0.0639
@<TRIPOS>BOND
     1     1     2    2
     2     2     3   ar
     3     3     4   ar
     4     4     5    1
     5     5     6    1
     6     5     7    1
     7     7     8    1
     8     8     9    1
     9     9    10    1
    10    10    11    1
    11     4    12   ar
    12    12    13   ar
    13    13    14   ar
    14    14    15   ar
    15    15    16   ar
    16    16    17   ar
    17    17    18   ar
    18    18    19   ar
    19    19    20   ar
    20    13    21   ar
    21    21     2   ar
    22    11     5    1
    23    20    12   ar
    24    20    15   ar
    25     1    22    1
    26     3    23    1
    27     6    24    1
    28     7    25    1
    29     7    26    1
    30     8    27    1
    31     8    28    1
    32     9    29    1
    33     9    30    1
    34    10    31    1
    35    10    32    1
    36    11    33    1
    37    11    34    1
    38    16    35    1
    39    17    36    1
    40    18    37    1
    41    19    38    1
