@<TRIPOS>MOLECULE
*****
 28 30 0 0 0
SMALL
GASTEIGER

@<TRIPOS>ATOM
      1 N          -1.0985    0.6527    0.2846 N.ar    1  UNL1       -0.1497
      2 C          -2.4456    0.2798    0.0360 C.ar    1  UNL1        0.0861
      3 C          -3.4917    1.1465    0.3848 C.ar    1  UNL1       -0.0345
      4 C          -4.8153    0.7756    0.1384 C.ar    1  UNL1       -0.0597
      5 C          -5.0987   -0.4550   -0.4537 C.ar    1  UNL1       -0.0616
      6 C          -4.0614   -1.3199   -0.8021 C.ar    1  UNL1       -0.0597
      7 C          -2.7350   -0.9568   -0.5593 C.ar    1  UNL1       -0.0345
      8 N          -0.7724    1.8402    0.8589 N.ar    1  UNL1       -0.1549
      9 C           0.5585    1.7695    0.8987 C.ar    1  UNL1        0.0776
     10 C           1.0176    0.5510    0.3530 C.ar    1  UNL1        0.1130
     11 C           2.3873    0.0575    0.1968 C.ar    1  UNL1        0.0037
     12 C           2.6273   -1.2003   -0.3796 C.ar    1  UNL1       -0.0525
     13 C           3.9296   -1.6829   -0.5343 C.ar    1  UNL1       -0.0611
     14 C           5.0116   -0.9142   -0.1146 C.ar    1  UNL1       -0.0617
     15 C           4.7925    0.3358    0.4593 C.ar    1  UNL1       -0.0611
     16 C           3.4892    0.8197    0.6146 C.ar    1  UNL1       -0.0525
     17 N          -0.0556   -0.1562   -0.0373 N.ar    1  UNL1       -0.1471
     18 H          -3.2911    2.1108    0.8476 H       1  UNL1        0.0639
     19 H          -5.6257    1.4480    0.4091 H       1  UNL1        0.0618
     20 H          -6.1303   -0.7407   -0.6441 H       1  UNL1        0.0618
     21 H          -4.2850   -2.2786   -1.2636 H       1  UNL1        0.0618
     22 H          -1.9398   -1.6453   -0.8383 H       1  UNL1        0.0639
     23 H           1.1191    2.5937    1.3157 H       1  UNL1        0.0870
     24 H           1.7960   -1.8182   -0.7149 H       1  UNL1        0.0624
     25 H           4.0950   -2.6592   -0.9829 H       1  UNL1        0.0618
     26 H           6.0248   -1.2892   -0.2348 H       1  UNL1        0.0618
     27 H           5.6373    0.9366    0.7873 H       1  UNL1        0.0618
     28 H           3.3601    1.7991    1.0666 H       1  UNL1        0.0624
@<TRIPOS>BOND
     1     1     2    1
     2     2     3   ar
     3     3     4   ar
     4     4     5   ar
     5     5     6   ar
     6     6     7   ar
     7     1     8   ar
     8     8     9   ar
     9     9    10   ar
    10    10    11    1
    11    11    12   ar
    12    12    13   ar
    13    13    14   ar
    14    14    15   ar
    15    15    16   ar
    16    10    17   ar
    17    17     1   ar
    18     7     2   ar
    19    16    11   ar
    20     3    18    1
    21     4    19    1
    22     5    20    1
    23     6    21    1
    24     7    22    1
    25     9    23    1
    26    12    24    1
    27    13    25    1
    28    14    26    1
    29    15    27    1
    30    16    28    1
