@<TRIPOS>MOLECULE
*****
 36 38 0 0 0
SMALL
GASTEIGER

@<TRIPOS>ATOM
      1 N          -2.7141   -1.2164   -0.4999 N.ar    1  UNL1       -0.2795
      2 C          -1.5311   -0.5716   -0.2322 C.ar    1  UNL1        0.1685
      3 N          -0.2963   -1.1370   -0.2291 N.ar    1  UNL1       -0.2095
      4 C           0.5464   -0.1483    0.0388 C.ar    1  UNL1        0.1434
      5 C           2.0021   -0.3059    0.0939 C.ar    1  UNL1        0.0176
      6 C           2.5469   -1.4012    0.7813 C.ar    1  UNL1       -0.0505
      7 C           3.9305   -1.5920    0.8430 C.ar    1  UNL1       -0.0509
      8 C           4.7786   -0.6868    0.2029 C.ar    1  UNL1        0.0142
      9 C           6.2395   -0.8899    0.2684 C.2     1  UNL1        0.1502
     10 O           7.0275   -0.1133   -0.2567 O.2     1  UNL1       -0.2957
     11 C           4.2510    0.3979   -0.5024 C.ar    1  UNL1       -0.0509
     12 C           2.8664    0.5821   -0.5620 C.ar    1  UNL1       -0.0505
     13 N          -0.1571    1.0217    0.2838 N.ar    1  UNL1       -0.3212
     14 C          -1.4827    0.7539    0.0637 C.ar    1  UNL1        0.1517
     15 C          -2.6408    1.5794    0.1104 C.ar    1  UNL1        0.2822
     16 N          -3.8211    0.8756   -0.1470 N.ar    1  UNL1       -0.2622
     17 C          -3.9068   -0.4937   -0.4719 C.ar    1  UNL1        0.3331
     18 O          -4.9950   -1.0205   -0.7216 O.2     1  UNL1       -0.2462
     19 C          -5.0714    1.6099   -0.1286 C.3     1  UNL1        0.0196
     20 O          -2.5912    2.7833    0.3439 O.2     1  UNL1       -0.2652
     21 C           0.3731    2.2818    0.7493 C.3     1  UNL1        0.0140
     22 C          -2.7147   -2.6307   -0.8269 C.3     1  UNL1        0.0181
     23 H           1.8847   -2.1155    1.2692 H       1  UNL1        0.0625
     24 H           4.3255   -2.4475    1.3844 H       1  UNL1        0.0625
     25 H           6.5902   -1.7786    0.8195 H       1  UNL1        0.1081
     26 H           4.9133    1.0929   -1.0153 H       1  UNL1        0.0625
     27 H           2.4738    1.4132   -1.1432 H       1  UNL1        0.0625
     28 H          -4.9489    2.6380    0.2211 H       1  UNL1        0.0458
     29 H          -5.4838    1.6251   -1.1428 H       1  UNL1        0.0458
     30 H          -5.7830    1.0970    0.5268 H       1  UNL1        0.0458
     31 H           1.3321    2.1242    1.2469 H       1  UNL1        0.0456
     32 H           0.4904    2.9430   -0.1123 H       1  UNL1        0.0456
     33 H          -0.3160    2.7161    1.4775 H       1  UNL1        0.0456
     34 H          -2.1350   -2.7846   -1.7426 H       1  UNL1        0.0458
     35 H          -2.2565   -3.1891   -0.0044 H       1  UNL1        0.0458
     36 H          -3.7266   -3.0124   -0.9858 H       1  UNL1        0.0458
@<TRIPOS>BOND
     1     1     2   ar
     2     2     3   ar
     3     3     4   ar
     4     4     5    1
     5     5     6   ar
     6     6     7   ar
     7     7     8   ar
     8     8     9    1
     9     9    10    2
    10     8    11   ar
    11    11    12   ar
    12     4    13   ar
    13    13    14   ar
    14    14    15   ar
    15    15    16   ar
    16    16    17   ar
    17    17    18    2
    18    16    19    1
    19    15    20    2
    20    13    21    1
    21     1    22    1
    22    17     1   ar
    23    14     2   ar
    24    12     5   ar
    25     6    23    1
    26     7    24    1
    27     9    25    1
    28    11    26    1
    29    12    27    1
    30    19    28    1
    31    19    29    1
    32    19    30    1
    33    21    31    1
    34    21    32    1
    35    21    33    1
    36    22    34    1
    37    22    35    1
    38    22    36    1
