@<TRIPOS>MOLECULE
*****
 38 40 0 0 0
SMALL
GASTEIGER

@<TRIPOS>ATOM
      1 N          -3.0426    0.2508    1.3325 N.ar    1  UNL1       -0.2795
      2 C          -1.8873    0.1168    0.6014 C.ar    1  UNL1        0.1685
      3 N          -0.6221    0.2456    1.0772 N.ar    1  UNL1       -0.2095
      4 C           0.1711    0.0759    0.0276 C.ar    1  UNL1        0.1434
      5 C           1.6315    0.1768    0.0756 C.ar    1  UNL1        0.0178
      6 C           2.3500    0.9359   -0.8544 C.ar    1  UNL1       -0.0477
      7 C           3.7438    1.0153   -0.7747 C.ar    1  UNL1       -0.0193
      8 C           4.4403    0.3530    0.2388 C.ar    1  UNL1        0.1201
      9 O           5.7974    0.5137    0.1983 O.3     1  UNL1       -0.4951
     10 C           6.5495   -0.1135    1.2296 C.3     1  UNL1        0.0788
     11 C           3.7283   -0.3872    1.1815 C.ar    1  UNL1       -0.0193
     12 C           2.3326   -0.4682    1.1020 C.ar    1  UNL1       -0.0477
     13 N          -0.5847   -0.2382   -1.0923 N.ar    1  UNL1       -0.3212
     14 C          -1.9034   -0.1652   -0.7281 C.ar    1  UNL1        0.1517
     15 C          -3.1062   -0.3334   -1.4691 C.ar    1  UNL1        0.2822
     16 N          -4.2534   -0.2112   -0.6791 N.ar    1  UNL1       -0.2622
     17 C          -4.2742    0.0966    0.6967 C.ar    1  UNL1        0.3331
     18 O          -5.3422    0.2246    1.3028 O.2     1  UNL1       -0.2462
     19 C          -5.5441   -0.3622   -1.3223 C.3     1  UNL1        0.0196
     20 O          -3.1200   -0.5523   -2.6769 O.2     1  UNL1       -0.2652
     21 C          -0.0979   -0.6360   -2.3923 C.3     1  UNL1        0.0140
     22 C          -2.9753    0.5689    2.7472 C.3     1  UNL1        0.0181
     23 H           1.8377    1.4888   -1.6374 H       1  UNL1        0.0626
     24 H           4.2921    1.6082   -1.5032 H       1  UNL1        0.0654
     25 H           6.2754    0.2803    2.2140 H       1  UNL1        0.0660
     26 H           6.4374   -1.2021    1.1932 H       1  UNL1        0.0660
     27 H           7.6057    0.1179    1.0610 H       1  UNL1        0.0660
     28 H           4.2221   -0.9094    1.9941 H       1  UNL1        0.0654
     29 H           1.7877   -1.0391    1.8523 H       1  UNL1        0.0626
     30 H          -5.4593   -0.6980   -2.3588 H       1  UNL1        0.0458
     31 H          -6.1444   -1.0885   -0.7646 H       1  UNL1        0.0458
     32 H          -6.0608    0.6029   -1.3014 H       1  UNL1        0.0458
     33 H          -0.1182    0.2379   -3.0475 H       1  UNL1        0.0456
     34 H           0.9167   -1.0306   -2.3085 H       1  UNL1        0.0456
     35 H          -0.7355   -1.4297   -2.7889 H       1  UNL1        0.0456
     36 H          -2.3912   -0.2015    3.2607 H       1  UNL1        0.0458
     37 H          -3.9679    0.6146    3.2027 H       1  UNL1        0.0458
     38 H          -2.4886    1.5416    2.8707 H       1  UNL1        0.0458
@<TRIPOS>BOND
     1     1     2   ar
     2     2     3   ar
     3     3     4   ar
     4     4     5    1
     5     5     6   ar
     6     6     7   ar
     7     7     8   ar
     8     8     9    1
     9     9    10    1
    10     8    11   ar
    11    11    12   ar
    12     4    13   ar
    13    13    14   ar
    14    14    15   ar
    15    15    16   ar
    16    16    17   ar
    17    17    18    2
    18    16    19    1
    19    15    20    2
    20    13    21    1
    21     1    22    1
    22    17     1   ar
    23    14     2   ar
    24    12     5   ar
    25     6    23    1
    26     7    24    1
    27    10    25    1
    28    10    26    1
    29    10    27    1
    30    11    28    1
    31    12    29    1
    32    19    30    1
    33    19    31    1
    34    19    32    1
    35    21    33    1
    36    21    34    1
    37    21    35    1
    38    22    36    1
    39    22    37    1
    40    22    38    1
