@<TRIPOS>MOLECULE
*****
 34 36 0 0 0
SMALL
GASTEIGER

@<TRIPOS>ATOM
      1 N          -2.4167   -0.4237    1.0815 N.ar    1  UNL1       -0.2795
      2 C          -1.1744   -0.2278    0.5287 C.ar    1  UNL1        0.1685
      3 N           0.0163   -0.4346    1.1479 N.ar    1  UNL1       -0.2095
      4 C           0.9414   -0.0857    0.2636 C.ar    1  UNL1        0.1434
      5 C           2.3824   -0.1081    0.5251 C.ar    1  UNL1        0.0175
      6 C           3.1999    0.9930    0.2351 C.ar    1  UNL1       -0.0511
      7 C           4.5709    0.9470    0.5004 C.ar    1  UNL1       -0.0611
      8 C           5.1342   -0.1947    1.0680 C.ar    1  UNL1       -0.0617
      9 C           4.3275   -1.2872    1.3803 C.ar    1  UNL1       -0.0611
     10 C           2.9571   -1.2410    1.1157 C.ar    1  UNL1       -0.0511
     11 N           0.3420    0.2665   -0.9365 N.ar    1  UNL1       -0.3212
     12 C          -1.0137    0.2165   -0.7456 C.ar    1  UNL1        0.1517
     13 C          -2.1073    0.5231   -1.6023 C.ar    1  UNL1        0.2822
     14 N          -3.3491    0.2853   -1.0052 N.ar    1  UNL1       -0.2622
     15 C          -3.5529   -0.1580    0.3178 C.ar    1  UNL1        0.3331
     16 O          -4.6924   -0.2987    0.7719 O.2     1  UNL1       -0.2462
     17 C          -4.5428    0.5607   -1.7806 C.3     1  UNL1        0.0196
     18 O          -1.9608    0.9599   -2.7401 O.2     1  UNL1       -0.2652
     19 C           0.9996    0.5700   -2.1857 C.3     1  UNL1        0.0140
     20 C          -2.5380   -0.8843    2.4527 C.3     1  UNL1        0.0181
     21 H           2.7755    1.9034   -0.1807 H       1  UNL1        0.0625
     22 H           5.1977    1.8061    0.2746 H       1  UNL1        0.0618
     23 H           6.2000   -0.2286    1.2793 H       1  UNL1        0.0618
     24 H           4.7615   -2.1730    1.8369 H       1  UNL1        0.0618
     25 H           2.3319   -2.0935    1.3752 H       1  UNL1        0.0625
     26 H          -5.0673    1.4080   -1.3268 H       1  UNL1        0.0458
     27 H          -4.3196    0.7978   -2.8238 H       1  UNL1        0.0458
     28 H          -5.2040   -0.3116   -1.7514 H       1  UNL1        0.0458
     29 H           0.4319    0.1290   -3.0085 H       1  UNL1        0.0456
     30 H           1.0497    1.6562   -2.2909 H       1  UNL1        0.0456
     31 H           2.0015    0.1361   -2.1978 H       1  UNL1        0.0456
     32 H          -2.0834   -0.1440    3.1186 H       1  UNL1        0.0458
     33 H          -3.5821   -1.0229    2.7454 H       1  UNL1        0.0458
     34 H          -2.0167   -1.8411    2.5571 H       1  UNL1        0.0458
@<TRIPOS>BOND
     1     1     2   ar
     2     2     3   ar
     3     3     4   ar
     4     4     5    1
     5     5     6   ar
     6     6     7   ar
     7     7     8   ar
     8     8     9   ar
     9     9    10   ar
    10     4    11   ar
    11    11    12   ar
    12    12    13   ar
    13    13    14   ar
    14    14    15   ar
    15    15    16    2
    16    14    17    1
    17    13    18    2
    18    11    19    1
    19     1    20    1
    20    15     1   ar
    21    12     2   ar
    22    10     5   ar
    23     6    21    1
    24     7    22    1
    25     8    23    1
    26     9    24    1
    27    10    25    1
    28    17    26    1
    29    17    27    1
    30    17    28    1
    31    19    29    1
    32    19    30    1
    33    19    31    1
    34    20    32    1
    35    20    33    1
    36    20    34    1
