@<TRIPOS>MOLECULE
*****
 38 40 0 0 0
SMALL
GASTEIGER

@<TRIPOS>ATOM
      1 N           2.8062   -0.4822    1.1883 N.ar    1  UNL1       -0.2795
      2 C           1.5819   -0.4053    0.5695 C.ar    1  UNL1        0.1685
      3 N           0.4107   -0.8911    1.0551 N.ar    1  UNL1       -0.2094
      4 C          -0.5093   -0.5611    0.1561 C.ar    1  UNL1        0.1470
      5 C          -1.9394   -0.8661    0.2914 C.ar    1  UNL1        0.0591
      6 C          -2.3018   -2.1877    0.6016 C.ar    1  UNL1       -0.0476
      7 C          -3.6407   -2.5463    0.7494 C.ar    1  UNL1       -0.0609
      8 C          -4.6332   -1.5840    0.5962 C.ar    1  UNL1       -0.0583
      9 C          -4.2898   -0.2604    0.3086 C.ar    1  UNL1       -0.0192
     10 C          -2.9465    0.1132    0.1691 C.ar    1  UNL1        0.1307
     11 O          -2.5361    1.3957   -0.0984 O.3     1  UNL1       -0.4944
     12 C          -3.4748    2.4383    0.1371 C.3     1  UNL1        0.0788
     13 N           0.0907    0.0530   -0.9329 N.ar    1  UNL1       -0.3211
     14 C           1.4230    0.1876   -0.6429 C.ar    1  UNL1        0.1517
     15 C           2.4969    0.7797   -1.3633 C.ar    1  UNL1        0.2822
     16 N           3.7219    0.6730   -0.6968 N.ar    1  UNL1       -0.2622
     17 C           3.9229    0.0692    0.5614 C.ar    1  UNL1        0.3331
     18 O           5.0443    0.0356    1.0773 O.2     1  UNL1       -0.2462
     19 C           4.8960    1.2413   -1.3294 C.3     1  UNL1        0.0196
     20 O           2.3502    1.3262   -2.4528 O.2     1  UNL1       -0.2652
     21 C          -0.5300    0.4340   -2.1795 C.3     1  UNL1        0.0140
     22 C           2.9252   -1.1189    2.4871 C.3     1  UNL1        0.0181
     23 H          -1.5286   -2.9431    0.7323 H       1  UNL1        0.0626
     24 H          -3.9051   -3.5735    0.9866 H       1  UNL1        0.0618
     25 H          -5.6787   -1.8614    0.7077 H       1  UNL1        0.0619
     26 H          -5.0962    0.4571    0.1972 H       1  UNL1        0.0654
     27 H          -4.2662    2.4271   -0.6190 H       1  UNL1        0.0660
     28 H          -2.9439    3.3909    0.0472 H       1  UNL1        0.0660
     29 H          -3.8913    2.3832    1.1486 H       1  UNL1        0.0660
     30 H           4.6814    1.6632   -2.3143 H       1  UNL1        0.0458
     31 H           5.2979    2.0302   -0.6850 H       1  UNL1        0.0458
     32 H           5.6574    0.4617   -1.4367 H       1  UNL1        0.0458
     33 H          -0.6624    1.5184   -2.1813 H       1  UNL1        0.0456
     34 H          -1.4907   -0.0708   -2.2963 H       1  UNL1        0.0456
     35 H           0.1163    0.1262   -3.0056 H       1  UNL1        0.0456
     36 H           3.9574   -1.1217    2.8468 H       1  UNL1        0.0458
     37 H           2.3053   -0.5768    3.2082 H       1  UNL1        0.0458
     38 H           2.5793   -2.1547    2.4113 H       1  UNL1        0.0458
@<TRIPOS>BOND
     1     1     2   ar
     2     2     3   ar
     3     3     4   ar
     4     4     5    1
     5     5     6   ar
     6     6     7   ar
     7     7     8   ar
     8     8     9   ar
     9     9    10   ar
    10    10    11    1
    11    11    12    1
    12     4    13   ar
    13    13    14   ar
    14    14    15   ar
    15    15    16   ar
    16    16    17   ar
    17    17    18    2
    18    16    19    1
    19    15    20    2
    20    13    21    1
    21     1    22    1
    22    17     1   ar
    23    14     2   ar
    24    10     5   ar
    25     6    23    1
    26     7    24    1
    27     8    25    1
    28     9    26    1
    29    12    27    1
    30    12    28    1
    31    12    29    1
    32    19    30    1
    33    19    31    1
    34    19    32    1
    35    21    33    1
    36    21    34    1
    37    21    35    1
    38    22    36    1
    39    22    37    1
    40    22    38    1
