@<TRIPOS>MOLECULE
*****
 28 31 0 0 0
SMALL
GASTEIGER

@<TRIPOS>ATOM
      1 N           0.6695    1.4600    0.1584 N.ar    1  UNL1       -0.3153
      2 C          -0.7155    1.4824    0.0902 C.ar    1  UNL1        0.0543
      3 C          -1.4711    0.2360   -0.0542 C.ar    1  UNL1        0.0066
      4 C          -0.7565   -0.9843   -0.1222 C.ar    1  UNL1       -0.0068
      5 C           0.7341   -0.9642   -0.0451 C.ar    1  UNL1        0.0066
      6 C           1.4325    0.2620    0.0948 C.ar    1  UNL1        0.0543
      7 C           2.8345    0.3043    0.1693 C.ar    1  UNL1       -0.0372
      8 C           3.5704   -0.8758    0.1058 C.ar    1  UNL1       -0.0598
      9 C           2.9138   -2.0918   -0.0311 C.ar    1  UNL1       -0.0611
     10 C           1.5170   -2.1340   -0.1053 C.ar    1  UNL1       -0.0520
     11 C          -1.5088   -2.1676   -0.2611 C.ar    1  UNL1       -0.0533
     12 C          -2.9058   -2.1457   -0.3299 C.ar    1  UNL1       -0.0611
     13 C          -3.5879   -0.9385   -0.2615 C.ar    1  UNL1       -0.0611
     14 C          -2.8739    0.2487   -0.1241 C.ar    1  UNL1       -0.0520
     15 C          -1.1186    2.8041    0.1826 C.ar    1  UNL1       -0.0359
     16 C           0.0368    3.6041    0.3092 C.ar    1  UNL1       -0.0432
     17 C           1.1209    2.7563    0.2918 C.ar    1  UNL1        0.0104
     18 H           3.3799    1.2360    0.2763 H       1  UNL1        0.0638
     19 H           4.6555   -0.8455    0.1633 H       1  UNL1        0.0618
     20 H           3.4858   -3.0152   -0.0809 H       1  UNL1        0.0618
     21 H           1.0623   -3.1140   -0.2119 H       1  UNL1        0.0624
     22 H          -1.0296   -3.1395   -0.3198 H       1  UNL1        0.0624
     23 H          -3.4574   -3.0764   -0.4372 H       1  UNL1        0.0618
     24 H          -4.6730   -0.9190   -0.3146 H       1  UNL1        0.0618
     25 H          -3.4245    1.1836   -0.0722 H       1  UNL1        0.0624
     26 H          -2.1395    3.1616    0.1615 H       1  UNL1        0.0639
     27 H           0.0770    4.6815    0.4032 H       1  UNL1        0.0633
     28 H           2.1720    2.9908    0.3649 H       1  UNL1        0.0813
@<TRIPOS>BOND
     1     1     2   ar
     2     2     3   ar
     3     3     4   ar
     4     4     5   ar
     5     5     6   ar
     6     6     7   ar
     7     7     8   ar
     8     8     9   ar
     9     9    10   ar
    10     4    11   ar
    11    11    12   ar
    12    12    13   ar
    13    13    14   ar
    14     2    15   ar
    15    15    16   ar
    16    16    17   ar
    17    17     1   ar
    18     6     1   ar
    19    14     3   ar
    20    10     5   ar
    21     7    18    1
    22     8    19    1
    23     9    20    1
    24    10    21    1
    25    11    22    1
    26    12    23    1
    27    13    24    1
    28    14    25    1
    29    15    26    1
    30    16    27    1
    31    17    28    1
