@<TRIPOS>MOLECULE
*****
 34 38 0 0 0
SMALL
GASTEIGER

@<TRIPOS>ATOM
      1 N           0.6767   -0.0378   -0.0790 N.ar    1  UNL1       -0.3081
      2 C          -0.0213    1.1490    0.1631 C.ar    1  UNL1        0.0555
      3 C          -1.4766    1.1741    0.3252 C.ar    1  UNL1        0.0066
      4 C          -2.1877   -0.0363    0.2334 C.ar    1  UNL1       -0.0068
      5 C          -1.4400   -1.2975   -0.0246 C.ar    1  UNL1        0.0066
      6 C          -0.0236   -1.2966   -0.1788 C.ar    1  UNL1        0.0549
      7 C           0.6401   -2.5077   -0.4206 C.ar    1  UNL1       -0.0372
      8 C          -0.0560   -3.7145   -0.5136 C.ar    1  UNL1       -0.0598
      9 C          -1.4302   -3.7319   -0.3663 C.ar    1  UNL1       -0.0611
     10 C          -2.1097   -2.5393   -0.1254 C.ar    1  UNL1       -0.0520
     11 C          -3.5888    0.0226    0.3943 C.ar    1  UNL1       -0.0533
     12 C          -4.2559    1.2276    0.6357 C.ar    1  UNL1       -0.0611
     13 C          -3.5381    2.4098    0.7228 C.ar    1  UNL1       -0.0611
     14 C          -2.1551    2.3831    0.5684 C.ar    1  UNL1       -0.0520
     15 C           0.8832    2.1862    0.2097 C.ar    1  UNL1       -0.0281
     16 C           2.1723    1.6638   -0.0040 C.ar    1  UNL1        0.0008
     17 C           2.0495    0.2751   -0.1849 C.ar    1  UNL1        0.0544
     18 C           3.2248   -0.4754   -0.4181 C.ar    1  UNL1       -0.0372
     19 C           4.4726    0.1632   -0.4647 C.ar    1  UNL1       -0.0598
     20 C           4.5822    1.5303   -0.2853 C.ar    1  UNL1       -0.0611
     21 C           3.4381    2.2873   -0.0547 C.ar    1  UNL1       -0.0526
     22 H           1.7037   -2.5848   -0.5473 H       1  UNL1        0.0638
     23 H           0.4835   -4.6395   -0.7018 H       1  UNL1        0.0618
     24 H          -1.9779   -4.6678   -0.4375 H       1  UNL1        0.0618
     25 H          -3.1871   -2.6135   -0.0183 H       1  UNL1        0.0624
     26 H          -4.2056   -0.8682    0.3369 H       1  UNL1        0.0624
     27 H          -5.3364    1.2356    0.7546 H       1  UNL1        0.0618
     28 H          -4.0491    3.3501    0.9101 H       1  UNL1        0.0618
     29 H          -1.6138    3.3219    0.6407 H       1  UNL1        0.0624
     30 H           0.6512    3.2285    0.3808 H       1  UNL1        0.0645
     31 H           3.2321   -1.5431   -0.5683 H       1  UNL1        0.0638
     32 H           5.3676   -0.4285   -0.6451 H       1  UNL1        0.0618
     33 H           5.5549    2.0125   -0.3239 H       1  UNL1        0.0618
     34 H           3.5202    3.3617    0.0867 H       1  UNL1        0.0624
@<TRIPOS>BOND
     1     1     2   ar
     2     2     3   ar
     3     3     4   ar
     4     4     5   ar
     5     5     6   ar
     6     6     7   ar
     7     7     8   ar
     8     8     9   ar
     9     9    10   ar
    10     4    11   ar
    11    11    12   ar
    12    12    13   ar
    13    13    14   ar
    14     2    15   ar
    15    15    16   ar
    16    16    17   ar
    17    17    18   ar
    18    18    19   ar
    19    19    20   ar
    20    20    21   ar
    21    17     1   ar
    22     6     1   ar
    23    14     3   ar
    24    10     5   ar
    25    21    16   ar
    26     7    22    1
    27     8    23    1
    28     9    24    1
    29    10    25    1
    30    11    26    1
    31    12    27    1
    32    13    28    1
    33    14    29    1
    34    15    30    1
    35    18    31    1
    36    19    32    1
    37    20    33    1
    38    21    34    1
