@<TRIPOS>MOLECULE
*****
 27 30 0 0 0
SMALL
GASTEIGER

@<TRIPOS>ATOM
      1 N          -1.3562    1.0120    0.0001 N.ar    1  UNL1       -0.2988
      2 C          -0.1954    1.7615   -0.0209 C.ar    1  UNL1        0.1458
      3 C           1.1089    1.1102   -0.0454 C.ar    1  UNL1        0.0255
      4 C           1.1581   -0.3041   -0.0472 C.ar    1  UNL1       -0.0053
      5 C          -0.1203   -1.0776   -0.0241 C.ar    1  UNL1        0.0067
      6 C          -1.3706   -0.4044   -0.0006 C.ar    1  UNL1        0.0557
      7 C          -2.5872   -1.1030    0.0215 C.ar    1  UNL1       -0.0372
      8 C          -2.5828   -2.4948    0.0205 C.ar    1  UNL1       -0.0598
      9 C          -1.3751   -3.1831   -0.0022 C.ar    1  UNL1       -0.0611
     10 C          -0.1624   -2.4841   -0.0242 C.ar    1  UNL1       -0.0520
     11 C           2.4325   -0.9009   -0.0711 C.ar    1  UNL1       -0.0533
     12 C           3.6011   -0.1293   -0.0922 C.ar    1  UNL1       -0.0611
     13 C           3.5263    1.2589   -0.0899 C.ar    1  UNL1       -0.0611
     14 C           2.2816    1.8793   -0.0665 C.ar    1  UNL1       -0.0505
     15 N          -0.4591    3.0555   -0.0152 N.ar    1  UNL1       -0.2355
     16 C          -1.8235    3.1491    0.0100 C.ar    1  UNL1        0.0464
     17 C          -2.4023    1.9018    0.0199 C.ar    1  UNL1        0.0299
     18 H          -3.5457   -0.5941    0.0394 H       1  UNL1        0.0638
     19 H          -3.5213   -3.0435    0.0374 H       1  UNL1        0.0618
     20 H          -1.3712   -4.2708   -0.0030 H       1  UNL1        0.0618
     21 H           0.7469   -3.0775   -0.0414 H       1  UNL1        0.0624
     22 H           2.5534   -1.9796   -0.0740 H       1  UNL1        0.0624
     23 H           4.5720   -0.6188   -0.1104 H       1  UNL1        0.0618
     24 H           4.4328    1.8580   -0.1062 H       1  UNL1        0.0618
     25 H           2.2183    2.9659   -0.0647 H       1  UNL1        0.0625
     26 H          -2.3204    4.1108    0.0198 H       1  UNL1        0.0845
     27 H          -3.4384    1.6026    0.0388 H       1  UNL1        0.0829
@<TRIPOS>BOND
     1     1     2   ar
     2     2     3   ar
     3     3     4   ar
     4     4     5   ar
     5     5     6   ar
     6     6     7   ar
     7     7     8   ar
     8     8     9   ar
     9     9    10   ar
    10     4    11   ar
    11    11    12   ar
    12    12    13   ar
    13    13    14   ar
    14     2    15   ar
    15    15    16   ar
    16    16    17   ar
    17    17     1   ar
    18     6     1   ar
    19    14     3   ar
    20    10     5   ar
    21     7    18    1
    22     8    19    1
    23     9    20    1
    24    10    21    1
    25    11    22    1
    26    12    23    1
    27    13    24    1
    28    14    25    1
    29    16    26    1
    30    17    27    1
