@<TRIPOS>MOLECULE
*****
 30 34 0 0 0
SMALL
GASTEIGER

@<TRIPOS>ATOM
      1 N           0.4419   -0.1930    0.0182 N.ar    1  UNL1       -0.2911
      2 C          -0.0568   -1.4804   -0.1328 C.ar    1  UNL1        0.1536
      3 C          -1.4613   -1.6861   -0.2671 C.ar    1  UNL1        0.0627
      4 C          -2.3591   -0.6381   -0.2528 C.ar    1  UNL1        0.0018
      5 C          -1.8327    0.7228   -0.0933 C.ar    1  UNL1        0.0072
      6 C          -0.4322    0.9471    0.0423 C.ar    1  UNL1        0.0563
      7 C           0.0368    2.2550    0.1925 C.ar    1  UNL1       -0.0372
      8 C          -0.8575    3.3299    0.2094 C.ar    1  UNL1       -0.0598
      9 C          -2.2247    3.1131    0.0772 C.ar    1  UNL1       -0.0611
     10 C          -2.7115    1.8160   -0.0735 C.ar    1  UNL1       -0.0520
     11 C          -3.7005   -1.1121   -0.4047 C.ar    1  UNL1       -0.0462
     12 C          -3.7576   -2.4853   -0.5261 C.ar    1  UNL1       -0.0230
     13 S          -2.2044   -3.2009   -0.4577 S.2     1  UNL1       -0.0930
     14 N           0.8751   -2.4007   -0.1334 N.ar    1  UNL1       -0.2266
     15 C           2.0417   -1.7096    0.0224 C.ar    1  UNL1        0.0900
     16 C           1.8262   -0.3267    0.1220 C.ar    1  UNL1        0.0739
     17 C           2.9169    0.5470    0.2870 C.ar    1  UNL1       -0.0357
     18 C           4.2086    0.0039    0.3483 C.ar    1  UNL1       -0.0597
     19 C           4.4233   -1.3656    0.2498 C.ar    1  UNL1       -0.0596
     20 C           3.3439   -2.2334    0.0862 C.ar    1  UNL1       -0.0342
     21 H           1.0812    2.4989    0.3001 H       1  UNL1        0.0638
     22 H          -0.4812    4.3441    0.3270 H       1  UNL1        0.0618
     23 H          -2.9134    3.9544    0.0914 H       1  UNL1        0.0618
     24 H          -3.7845    1.6784   -0.1745 H       1  UNL1        0.0624
     25 H          -4.5877   -0.4924   -0.4258 H       1  UNL1        0.0629
     26 H          -4.6347   -3.1052   -0.6518 H       1  UNL1        0.0694
     27 H           2.8150    1.6192    0.3697 H       1  UNL1        0.0639
     28 H           5.0605    0.6696    0.4758 H       1  UNL1        0.0618
     29 H           5.4330   -1.7651    0.2999 H       1  UNL1        0.0618
     30 H           3.4957   -3.3049    0.0078 H       1  UNL1        0.0639
@<TRIPOS>BOND
     1     1     2   ar
     2     2     3   ar
     3     3     4   ar
     4     4     5   ar
     5     5     6   ar
     6     6     7   ar
     7     7     8   ar
     8     8     9   ar
     9     9    10   ar
    10     4    11   ar
    11    11    12   ar
    12    12    13   ar
    13     2    14   ar
    14    14    15   ar
    15    15    16   ar
    16    16    17   ar
    17    17    18   ar
    18    18    19   ar
    19    19    20   ar
    20    16     1   ar
    21     6     1   ar
    22    13     3   ar
    23    10     5   ar
    24    20    15   ar
    25     7    21    1
    26     8    22    1
    27     9    23    1
    28    10    24    1
    29    11    25    1
    30    12    26    1
    31    17    27    1
    32    18    28    1
    33    19    29    1
    34    20    30    1
