@<TRIPOS>MOLECULE
*****
 39 45 0 0 0
SMALL
GASTEIGER

@<TRIPOS>ATOM
      1 SI          3.6672   -0.9307   -2.5044 Si      1  UNL1        0.0000
      2 C           5.5857   -0.9865   -2.5601 C.2     1  UNL1        0.0000
      3 C           6.1260   -0.4821   -1.4288 C.2     1  UNL1        0.0000
      4 C           5.1757   -0.0285   -0.4604 C.ar    1  UNL1        0.0000
      5 C           5.3565    0.5212    0.7798 C.ar    1  UNL1        0.0000
      6 S           3.8329    0.8701    1.5196 S.2     1  UNL1        0.0000
      7 C           2.9331    0.2899    0.1618 C.ar    1  UNL1        0.0000
      8 C           3.8012   -0.1520   -0.7930 C.ar    1  UNL1        0.0000
      9 C           1.4860    0.3280    0.1873 C.ar    1  UNL1        0.0000
     10 C           0.6909   -0.5525    0.9620 C.ar    1  UNL1        0.0000
     11 C          -0.7279   -0.4771    0.9155 C.ar    1  UNL1        0.0000
     12 N          -1.7049   -1.2223    1.5747 N.ar    1  UNL1        0.0000
     13 C          -2.9291   -0.7641    1.1918 C.ar    1  UNL1        0.0000
     14 C          -2.7783    0.2748    0.2904 C.ar    1  UNL1        0.0000
     15 SI         -4.4863    0.8867   -0.2143 Si      1  UNL1        0.0000
     16 C          -5.2665   -0.4118    0.9191 C.ar    1  UNL1        0.0000
     17 C          -6.4872   -0.9026    1.3605 C.ar    1  UNL1        0.0000
     18 C          -6.1464   -1.9222    2.2375 C.ar    1  UNL1        0.0000
     19 O          -4.7857   -2.0684    2.3450 O.2     1  UNL1        0.0000
     20 C          -4.2569   -1.1312    1.5275 C.ar    1  UNL1        0.0000
     21 C          -1.4303    0.4422    0.1279 C.ar    1  UNL1        0.0000
     22 C          -0.6606    1.3370   -0.6541 C.ar    1  UNL1        0.0000
     23 C          -1.0152    2.3338   -1.5052 C.ar    1  UNL1        0.0000
     24 O           0.1435    2.8900   -1.9900 O.2     1  UNL1        0.0000
     25 C           1.1972    2.2175   -1.4175 C.ar    1  UNL1        0.0000
     26 C           0.7374    1.2271   -0.5786 C.ar    1  UNL1        0.0000
     27 H           3.1483   -0.0145   -3.5502 H       1  UNL1        0.0000
     28 H           3.1084   -2.3058   -2.5110 H       1  UNL1        0.0000
     29 H           6.1004   -1.3845   -3.4195 H       1  UNL1        0.0000
     30 H           7.1946   -0.4219   -1.2575 H       1  UNL1        0.0000
     31 H           6.2770    0.7375    1.3032 H       1  UNL1        0.0000
     32 H           1.1721   -1.2958    1.5942 H       1  UNL1        0.0000
     33 H          -1.5323   -1.9740    2.2281 H       1  UNL1        0.0000
     34 H          -4.7892    0.6539   -1.6501 H       1  UNL1        0.0000
     35 H          -4.7644    2.2780    0.2260 H       1  UNL1        0.0000
     36 H          -7.4895   -0.5901    1.1044 H       1  UNL1        0.0000
     37 H          -6.7263   -2.6084    2.8394 H       1  UNL1        0.0000
     38 H          -1.9340    2.7695   -1.8670 H       1  UNL1        0.0000
     39 H           2.1769    2.5696   -1.7098 H       1  UNL1        0.0000
@<TRIPOS>BOND
     1     1     2    1
     2     2     3    2
     3     3     4    1
     4     4     5   ar
     5     5     6   ar
     6     6     7   ar
     7     7     8   ar
     8     7     9    1
     9     9    10   ar
    10    10    11   ar
    11    11    12   ar
    12    12    13   ar
    13    13    14   ar
    14    14    15    1
    15    15    16    1
    16    16    17   ar
    17    17    18   ar
    18    18    19   ar
    19    19    20   ar
    20    14    21   ar
    21    21    22   ar
    22    22    23   ar
    23    23    24   ar
    24    24    25   ar
    25    25    26   ar
    26     8     1    1
    27    26     9   ar
    28     8     4   ar
    29    21    11   ar
    30    26    22   ar
    31    13    20    1
    32    20    16   ar
    33     1    27    1
    34     1    28    1
    35     2    29    1
    36     3    30    1
    37     5    31    1
    38    10    32    1
    39    12    33    1
    40    15    34    1
    41    15    35    1
    42    17    36    1
    43    18    37    1
    44    23    38    1
    45    25    39    1
