@<TRIPOS>MOLECULE
*****
 30 33 0 0 0
SMALL
GASTEIGER

@<TRIPOS>ATOM
      1 N          -1.9281   -0.1207    0.1171 N.ar    1  UNL1       -0.2825
      2 C          -1.0194   -1.0620    0.5643 C.ar    1  UNL1        0.1691
      3 C           0.3457   -1.2116    0.0638 C.ar    1  UNL1        0.0273
      4 C           1.3698   -0.2643    0.3452 C.ar    1  UNL1       -0.0072
      5 C           2.6482   -0.4606   -0.2364 C.ar    1  UNL1       -0.0172
      6 C           3.6784    0.4636    0.0044 C.ar    1  UNL1       -0.0540
      7 C           3.4717    1.5742    0.8209 C.ar    1  UNL1       -0.0612
      8 C           2.2329    1.7721    1.4151 C.ar    1  UNL1       -0.0611
      9 C           1.1972    0.8643    1.1840 C.ar    1  UNL1       -0.0534
     10 C           2.8851   -1.5823   -1.0460 C.ar    1  UNL1       -0.0540
     11 C           1.8828   -2.5188   -1.2855 C.ar    1  UNL1       -0.0605
     12 C           0.6207   -2.3353   -0.7320 C.ar    1  UNL1       -0.0504
     13 N          -1.6053   -1.8256    1.4700 N.ar    1  UNL1       -0.1285
     14 N          -2.8925   -1.3744    1.6593 N.ar    1  UNL1       -0.1291
     15 C          -3.0827   -0.3575    0.8498 C.ar    1  UNL1        0.1613
     16 C          -4.2029    0.4835    0.6059 C.ar    1  UNL1       -0.0170
     17 C          -4.1129    1.4589   -0.3199 C.ar    1  UNL1       -0.0569
     18 C          -2.8915    1.6743   -1.0820 C.ar    1  UNL1       -0.0450
     19 C          -1.8297    0.8835   -0.8491 C.ar    1  UNL1        0.0132
     20 H           4.6612    0.3199   -0.4404 H       1  UNL1        0.0624
     21 H           4.2822    2.2756    1.0013 H       1  UNL1        0.0618
     22 H           2.0707    2.6265    2.0674 H       1  UNL1        0.0618
     23 H           0.2497    1.0416    1.6892 H       1  UNL1        0.0624
     24 H           3.8661   -1.7434   -1.4892 H       1  UNL1        0.0624
     25 H           2.0864   -3.3908   -1.9017 H       1  UNL1        0.0618
     26 H          -0.1574   -3.0729   -0.9227 H       1  UNL1        0.0625
     27 H          -5.1113    0.3175    1.1738 H       1  UNL1        0.0655
     28 H          -4.9583    2.1106   -0.5214 H       1  UNL1        0.0619
     29 H          -2.8656    2.4678   -1.8217 H       1  UNL1        0.0632
     30 H          -0.8907    0.9863   -1.3789 H       1  UNL1        0.0814
@<TRIPOS>BOND
     1     1     2   ar
     2     2     3    1
     3     3     4   ar
     4     4     5   ar
     5     5     6   ar
     6     6     7   ar
     7     7     8   ar
     8     8     9   ar
     9     5    10   ar
    10    10    11   ar
    11    11    12   ar
    12     2    13   ar
    13    13    14   ar
    14    14    15   ar
    15    15    16   ar
    16    16    17   ar
    17    17    18   ar
    18    18    19   ar
    19    15     1   ar
    20    19     1   ar
    21    12     3   ar
    22     9     4   ar
    23     6    20    1
    24     7    21    1
    25     8    22    1
    26     9    23    1
    27    10    24    1
    28    11    25    1
    29    12    26    1
    30    16    27    1
    31    17    28    1
    32    18    29    1
    33    19    30    1
