@<TRIPOS>MOLECULE
*****
 33 36 0 0 0
SMALL
GASTEIGER

@<TRIPOS>ATOM
      1 N          -0.3727   -1.2189   -0.0489 N.ar    1  UNL1       -0.1957
      2 C          -1.7751   -1.3114   -0.0298 C.ar    1  UNL1        0.0778
      3 C          -2.6401   -0.1167   -0.0039 C.ar    1  UNL1        0.0006
      4 C          -2.5113    0.8316    1.0205 C.ar    1  UNL1       -0.0526
      5 C          -3.3369    1.9578    1.0538 C.ar    1  UNL1       -0.0611
      6 C          -4.2984    2.1486    0.0638 C.ar    1  UNL1       -0.0617
      7 C          -4.4338    1.2165   -0.9628 C.ar    1  UNL1       -0.0611
      8 C          -3.6089    0.0896   -0.9980 C.ar    1  UNL1       -0.0526
      9 C          -2.3420   -2.5327   -0.0115 C.ar    1  UNL1       -0.0173
     10 C          -1.4041   -3.6855   -0.0236 C.ar    1  UNL1        0.0335
     11 N          -0.1100   -3.6259   -0.0452 N.ar    1  UNL1       -0.2190
     12 C           0.4271   -2.3700   -0.0573 C.ar    1  UNL1        0.2539
     13 N           1.6905   -2.0139   -0.0757 N.ar    1  UNL1       -0.1892
     14 C           1.6557   -0.6424   -0.0810 C.ar    1  UNL1        0.1838
     15 C           2.8754    0.1619   -0.1023 C.ar    1  UNL1        0.0209
     16 C           4.1331   -0.4592   -0.1020 C.ar    1  UNL1       -0.0510
     17 C           5.3044    0.3026   -0.1218 C.ar    1  UNL1       -0.0611
     18 C           5.2311    1.6941   -0.1424 C.ar    1  UNL1       -0.0617
     19 C           3.9886    2.3253   -0.1435 C.ar    1  UNL1       -0.0611
     20 C           2.8170    1.5637   -0.1235 C.ar    1  UNL1       -0.0510
     21 N           0.4223   -0.1209   -0.0616 N.ar    1  UNL1       -0.1431
     22 H          -1.7618    0.7074    1.7999 H       1  UNL1        0.0624
     23 H          -3.2237    2.6887    1.8506 H       1  UNL1        0.0618
     24 H          -4.9370    3.0280    0.0887 H       1  UNL1        0.0618
     25 H          -5.1775    1.3704   -1.7406 H       1  UNL1        0.0618
     26 H          -3.7233   -0.6167   -1.8173 H       1  UNL1        0.0624
     27 H          -3.4057   -2.7259    0.0222 H       1  UNL1        0.0654
     28 H          -1.8872   -4.6772   -0.0120 H       1  UNL1        0.0831
     29 H           4.2066   -1.5454   -0.0863 H       1  UNL1        0.0625
     30 H           6.2719   -0.1927   -0.1214 H       1  UNL1        0.0618
     31 H           6.1423    2.2864   -0.1582 H       1  UNL1        0.0618
     32 H           3.9287    3.4104   -0.1605 H       1  UNL1        0.0618
     33 H           1.8548    2.0723   -0.1260 H       1  UNL1        0.0625
@<TRIPOS>BOND
     1     1     2   ar
     2     2     3    1
     3     3     4   ar
     4     4     5   ar
     5     5     6   ar
     6     6     7   ar
     7     7     8   ar
     8     2     9   ar
     9     9    10   ar
    10    10    11   ar
    11    11    12   ar
    12    12    13   ar
    13    13    14   ar
    14    14    15    1
    15    15    16   ar
    16    16    17   ar
    17    17    18   ar
    18    18    19   ar
    19    19    20   ar
    20    14    21   ar
    21    12     1   ar
    22    21     1   ar
    23     8     3   ar
    24    20    15   ar
    25     4    22    1
    26     5    23    1
    27     6    24    1
    28     7    25    1
    29     8    26    1
    30     9    27    1
    31    10    28    1
    32    16    29    1
    33    17    30    1
    34    18    31    1
    35    19    32    1
    36    20    33    1
