@<TRIPOS>MOLECULE
*****
 23 25 0 0 0
SMALL
GASTEIGER

@<TRIPOS>ATOM
      1 N          -1.1230   -0.3542    0.4929 N.ar    1  UNL1       -0.2812
      2 C          -0.0521    0.3938    0.9646 C.ar    1  UNL1        0.1869
      3 C           1.2172    0.6649    0.2837 C.ar    1  UNL1        0.1083
      4 C           2.1961    1.4415    0.9021 C.ar    1  UNL1       -0.0326
      5 C           3.3936    1.6843    0.2336 C.ar    1  UNL1       -0.0582
      6 C           3.5841    1.1473   -1.0321 C.ar    1  UNL1       -0.0436
      7 C           2.5640    0.3874   -1.5769 C.ar    1  UNL1        0.0284
      8 N           1.3915    0.1357   -0.9507 N.ar    1  UNL1       -0.2518
      9 N          -0.3611    0.8460    2.1743 N.ar    1  UNL1       -0.1269
     10 N          -1.6154    0.4128    2.5139 N.ar    1  UNL1       -0.1290
     11 C          -2.0705   -0.3024    1.5128 C.ar    1  UNL1        0.1614
     12 C          -3.3015   -0.9881    1.3213 C.ar    1  UNL1       -0.0170
     13 C          -3.5186   -1.6609    0.1757 C.ar    1  UNL1       -0.0569
     14 C          -2.5172   -1.7024   -0.8758 C.ar    1  UNL1       -0.0450
     15 C          -1.3527   -1.0549   -0.6970 C.ar    1  UNL1        0.0133
     16 H           2.0315    1.8547    1.8935 H       1  UNL1        0.0640
     17 H           4.1676    2.2872    0.7001 H       1  UNL1        0.0619
     18 H           4.5042    1.3167   -1.5802 H       1  UNL1        0.0633
     19 H           2.6655   -0.0542   -2.5646 H       1  UNL1        0.0830
     20 H          -4.0439   -0.9526    2.1105 H       1  UNL1        0.0655
     21 H          -4.4523   -2.1906    0.0111 H       1  UNL1        0.0619
     22 H          -2.7300   -2.2556   -1.7846 H       1  UNL1        0.0632
     23 H          -0.5770   -1.0565   -1.4500 H       1  UNL1        0.0814
@<TRIPOS>BOND
     1     1     2   ar
     2     2     3    1
     3     3     4   ar
     4     4     5   ar
     5     5     6   ar
     6     6     7   ar
     7     7     8   ar
     8     2     9   ar
     9     9    10   ar
    10    10    11   ar
    11    11    12   ar
    12    12    13   ar
    13    13    14   ar
    14    14    15   ar
    15    11     1   ar
    16    15     1   ar
    17     8     3   ar
    18     4    16    1
    19     5    17    1
    20     6    18    1
    21     7    19    1
    22    12    20    1
    23    13    21    1
    24    14    22    1
    25    15    23    1
