@<TRIPOS>MOLECULE
*****
 33 37 0 0 0
SMALL
GASTEIGER

@<TRIPOS>ATOM
      1 N           0.6857    0.2015    0.0989 N.ar    1  UNL1       -0.2915
      2 C           0.4281   -1.0909   -0.3459 C.ar    1  UNL1        0.1469
      3 C          -0.9292   -1.5716   -0.5690 C.ar    1  UNL1        0.0256
      4 C          -1.1447   -2.8847   -1.0188 C.ar    1  UNL1       -0.0505
      5 C          -2.4358   -3.3534   -1.2348 C.ar    1  UNL1       -0.0611
      6 C          -3.5145   -2.5108   -1.0018 C.ar    1  UNL1       -0.0611
      7 C          -3.3021   -1.2013   -0.5533 C.ar    1  UNL1       -0.0533
      8 C          -2.0056   -0.6981   -0.3255 C.ar    1  UNL1       -0.0052
      9 C          -1.7193    0.6854    0.1511 C.ar    1  UNL1        0.0081
     10 C          -2.7579    1.6057    0.4120 C.ar    1  UNL1       -0.0337
     11 C          -2.4919    2.8993    0.8576 C.ar    1  UNL1        0.0417
     12 CL         -3.7905    3.9860    1.1623 Cl      1  UNL1       -0.0835
     13 C          -1.1859    3.3145    1.0564 C.ar    1  UNL1       -0.0414
     14 C          -0.1327    2.4324    0.8089 C.ar    1  UNL1       -0.0358
     15 C          -0.3786    1.1275    0.3605 C.ar    1  UNL1        0.0564
     16 N           1.5295   -1.7857   -0.5284 N.ar    1  UNL1       -0.2272
     17 C           2.5469   -0.9433   -0.1997 C.ar    1  UNL1        0.0900
     18 C           3.9249   -1.2167   -0.2283 C.ar    1  UNL1       -0.0342
     19 C           4.8276   -0.2229    0.1458 C.ar    1  UNL1       -0.0596
     20 C           4.3627    1.0243    0.5424 C.ar    1  UNL1       -0.0597
     21 C           2.9905    1.3149    0.5771 C.ar    1  UNL1       -0.0357
     22 C           2.0751    0.3133    0.1997 C.ar    1  UNL1        0.0739
     23 H          -0.2966   -3.5427   -1.2005 H       1  UNL1        0.0625
     24 H          -2.5960   -4.3702   -1.5828 H       1  UNL1        0.0618
     25 H          -4.5278   -2.8689   -1.1680 H       1  UNL1        0.0618
     26 H          -4.1871   -0.5941   -0.3903 H       1  UNL1        0.0624
     27 H          -3.7994    1.3337    0.2733 H       1  UNL1        0.0639
     28 H          -0.9752    4.3230    1.4039 H       1  UNL1        0.0633
     29 H           0.8568    2.8200    0.9840 H       1  UNL1        0.0639
     30 H           4.2713   -2.1963   -0.5407 H       1  UNL1        0.0639
     31 H           5.8949   -0.4277    0.1260 H       1  UNL1        0.0618
     32 H           5.0772    1.7928    0.8325 H       1  UNL1        0.0618
     33 H           2.6994    2.3048    0.8954 H       1  UNL1        0.0639
@<TRIPOS>BOND
     1     1     2   ar
     2     2     3   ar
     3     3     4   ar
     4     4     5   ar
     5     5     6   ar
     6     6     7   ar
     7     7     8   ar
     8     8     9   ar
     9     9    10   ar
    10    10    11   ar
    11    11    12    1
    12    11    13   ar
    13    13    14   ar
    14    14    15   ar
    15     2    16   ar
    16    16    17   ar
    17    17    18   ar
    18    18    19   ar
    19    19    20   ar
    20    20    21   ar
    21    21    22   ar
    22    15     1   ar
    23    22    17   ar
    24    22     1   ar
    25     8     3   ar
    26    15     9   ar
    27     4    23    1
    28     5    24    1
    29     6    25    1
    30     7    26    1
    31    10    27    1
    32    13    28    1
    33    14    29    1
    34    18    30    1
    35    19    31    1
    36    20    32    1
    37    21    33    1
