@<TRIPOS>MOLECULE
*****
 37 41 0 0 0
SMALL
GASTEIGER

@<TRIPOS>ATOM
      1 N          -0.6851   -0.1927   -0.0126 N.ar    1  UNL1       -0.3081
      2 C          -0.4557   -1.5586   -0.1391 C.ar    1  UNL1        0.0555
      3 C           0.8989   -2.1075   -0.0658 C.ar    1  UNL1        0.0066
      4 C           1.1153   -3.4959   -0.0818 C.ar    1  UNL1       -0.0520
      5 C           2.4021   -4.0155    0.0284 C.ar    1  UNL1       -0.0611
      6 C           3.4804   -3.1521    0.1609 C.ar    1  UNL1       -0.0611
      7 C           3.2729   -1.7689    0.1768 C.ar    1  UNL1       -0.0533
      8 C           1.9834   -1.2120    0.0596 C.ar    1  UNL1       -0.0068
      9 C           1.7187    0.2546    0.0378 C.ar    1  UNL1        0.0066
     10 C           2.7586    1.2060    0.0511 C.ar    1  UNL1       -0.0518
     11 C           2.5079    2.5789   -0.0368 C.ar    1  UNL1       -0.0581
     12 C           1.2057    3.0483   -0.1793 C.ar    1  UNL1       -0.0485
     13 C           0.9309    4.5187   -0.2936 C.3     1  UNL1       -0.0396
     14 C           0.1515    2.1281   -0.1738 C.ar    1  UNL1       -0.0343
     15 C           0.3914    0.7517   -0.0297 C.ar    1  UNL1        0.0551
     16 C          -1.6730   -2.1666   -0.3690 C.ar    1  UNL1       -0.0281
     17 C          -2.6892   -1.1995   -0.1887 C.ar    1  UNL1        0.0008
     18 C          -4.0970   -1.2757   -0.2166 C.ar    1  UNL1       -0.0526
     19 C          -4.8586   -0.1579    0.1264 C.ar    1  UNL1       -0.0611
     20 C          -4.2337    1.0172    0.5190 C.ar    1  UNL1       -0.0598
     21 C          -2.8379    1.1178    0.5405 C.ar    1  UNL1       -0.0372
     22 C          -2.0626    0.0120    0.1324 C.ar    1  UNL1        0.0544
     23 H           0.2824   -4.1877   -0.1694 H       1  UNL1        0.0624
     24 H           2.5591   -5.0906    0.0175 H       1  UNL1        0.0618
     25 H           4.4879   -3.5500    0.2524 H       1  UNL1        0.0618
     26 H           4.1528   -1.1429    0.2844 H       1  UNL1        0.0624
     27 H           3.7996    0.9055    0.1171 H       1  UNL1        0.0624
     28 H           3.3454    3.2730   -0.0206 H       1  UNL1        0.0620
     29 H           0.0783    4.7050   -0.9550 H       1  UNL1        0.0278
     30 H           0.7127    4.9359    0.6942 H       1  UNL1        0.0278
     31 H           1.7911    5.0479   -0.7171 H       1  UNL1        0.0278
     32 H          -0.8455    2.5144   -0.3445 H       1  UNL1        0.0641
     33 H          -1.8318   -3.2163   -0.5754 H       1  UNL1        0.0645
     34 H          -4.5890   -2.2091   -0.4753 H       1  UNL1        0.0624
     35 H          -5.9436   -0.2203    0.1162 H       1  UNL1        0.0618
     36 H          -4.8354    1.8703    0.8246 H       1  UNL1        0.0618
     37 H          -2.3890    2.0346    0.9048 H       1  UNL1        0.0638
@<TRIPOS>BOND
     1     1     2   ar
     2     2     3   ar
     3     3     4   ar
     4     4     5   ar
     5     5     6   ar
     6     6     7   ar
     7     7     8   ar
     8     8     9   ar
     9     9    10   ar
    10    10    11   ar
    11    11    12   ar
    12    12    13    1
    13    12    14   ar
    14    14    15   ar
    15     2    16   ar
    16    16    17   ar
    17    17    18   ar
    18    18    19   ar
    19    19    20   ar
    20    20    21   ar
    21    21    22   ar
    22    15     1   ar
    23    22    17   ar
    24    22     1   ar
    25     8     3   ar
    26    15     9   ar
    27     4    23    1
    28     5    24    1
    29     6    25    1
    30     7    26    1
    31    10    27    1
    32    11    28    1
    33    13    29    1
    34    13    30    1
    35    13    31    1
    36    14    32    1
    37    16    33    1
    38    18    34    1
    39    19    35    1
    40    20    36    1
    41    21    37    1
