@<TRIPOS>MOLECULE
*****
 30 33 0 0 0
SMALL
GASTEIGER

@<TRIPOS>ATOM
      1 N          -0.1961    1.5937    0.3629 N.ar    1  UNL1       -0.2988
      2 C          -1.5624    1.4225    0.2449 C.ar    1  UNL1        0.1458
      3 C          -2.1213    0.1176   -0.0879 C.ar    1  UNL1        0.0255
      4 C          -3.5093   -0.0472   -0.2038 C.ar    1  UNL1       -0.0505
      5 C          -4.0433   -1.2921   -0.5200 C.ar    1  UNL1       -0.0611
      6 C          -3.1921   -2.3729   -0.7203 C.ar    1  UNL1       -0.0611
      7 C          -1.8056   -2.2123   -0.6057 C.ar    1  UNL1       -0.0533
      8 C          -1.2338   -0.9662   -0.2878 C.ar    1  UNL1       -0.0053
      9 C           0.2367   -0.7377   -0.1533 C.ar    1  UNL1        0.0067
     10 C           1.1881   -1.7552   -0.3430 C.ar    1  UNL1       -0.0518
     11 C           2.5617   -1.5140   -0.2096 C.ar    1  UNL1       -0.0581
     12 C           3.0351   -0.2456    0.1291 C.ar    1  UNL1       -0.0485
     13 C           4.5091    0.0128    0.2374 C.3     1  UNL1       -0.0396
     14 C           2.1171    0.7926    0.3089 C.ar    1  UNL1       -0.0343
     15 C           0.7407    0.5476    0.1746 C.ar    1  UNL1        0.0560
     16 N          -2.2094    2.5518    0.4685 N.ar    1  UNL1       -0.2355
     17 C          -1.2409    3.4790    0.7388 C.ar    1  UNL1        0.0464
     18 C           0.0114    2.9139    0.6806 C.ar    1  UNL1        0.0299
     19 H          -4.1719    0.8017   -0.0455 H       1  UNL1        0.0625
     20 H          -5.1192   -1.4162   -0.6088 H       1  UNL1        0.0618
     21 H          -3.6049   -3.3482   -0.9672 H       1  UNL1        0.0618
     22 H          -1.1915   -3.0918   -0.7723 H       1  UNL1        0.0624
     23 H           0.8905   -2.7666   -0.6035 H       1  UNL1        0.0624
     24 H           3.2595   -2.3332   -0.3735 H       1  UNL1        0.0620
     25 H           5.0420   -0.8885    0.5584 H       1  UNL1        0.0278
     26 H           4.7151    0.7922    0.9785 H       1  UNL1        0.0278
     27 H           4.9051    0.3313   -0.7318 H       1  UNL1        0.0278
     28 H           2.4952    1.7811    0.5526 H       1  UNL1        0.0641
     29 H          -1.4945    4.5073    0.9621 H       1  UNL1        0.0845
     30 H           0.9887    3.3427    0.8366 H       1  UNL1        0.0829
@<TRIPOS>BOND
     1     1     2   ar
     2     2     3   ar
     3     3     4   ar
     4     4     5   ar
     5     5     6   ar
     6     6     7   ar
     7     7     8   ar
     8     8     9   ar
     9     9    10   ar
    10    10    11   ar
    11    11    12   ar
    12    12    13    1
    13    12    14   ar
    14    14    15   ar
    15     2    16   ar
    16    16    17   ar
    17    17    18   ar
    18    15     1   ar
    19    18     1   ar
    20     8     3   ar
    21    15     9   ar
    22     4    19    1
    23     5    20    1
    24     6    21    1
    25     7    22    1
    26    10    23    1
    27    11    24    1
    28    13    25    1
    29    13    26    1
    30    13    27    1
    31    14    28    1
    32    17    29    1
    33    18    30    1
