@<TRIPOS>MOLECULE
*****
 36 40 0 0 0
SMALL
GASTEIGER

@<TRIPOS>ATOM
      1 N          -0.5026   -0.5783    0.0570 N.ar    1  UNL1       -0.2915
      2 C           0.4222   -1.6121    0.1160 C.ar    1  UNL1        0.1469
      3 C           1.8515   -1.3610   -0.0180 C.ar    1  UNL1        0.0256
      4 C           2.7580   -2.4328   -0.0209 C.ar    1  UNL1       -0.0505
      5 C           4.1202   -2.2018   -0.1796 C.ar    1  UNL1       -0.0611
      6 C           4.5785   -0.9001   -0.3390 C.ar    1  UNL1       -0.0611
      7 C           3.6766    0.1712   -0.3335 C.ar    1  UNL1       -0.0533
      8 C           2.2925   -0.0303   -0.1684 C.ar    1  UNL1       -0.0053
      9 C           1.2892    1.0725   -0.1258 C.ar    1  UNL1        0.0067
     10 C           1.6659    2.4284   -0.1864 C.ar    1  UNL1       -0.0518
     11 C           0.7275    3.4608   -0.0966 C.ar    1  UNL1       -0.0581
     12 C          -0.6243    3.1725    0.0683 C.ar    1  UNL1       -0.0485
     13 C          -1.6231    4.2794    0.2389 C.3     1  UNL1       -0.0396
     14 C          -1.0276    1.8344    0.1436 C.ar    1  UNL1       -0.0343
     15 C          -0.0982    0.7916    0.0114 C.ar    1  UNL1        0.0566
     16 N          -0.1548   -2.7804    0.3040 N.ar    1  UNL1       -0.2272
     17 C          -1.4953   -2.5311    0.2535 C.ar    1  UNL1        0.0900
     18 C          -2.5497   -3.4540    0.3516 C.ar    1  UNL1       -0.0342
     19 C          -3.8632   -3.0077    0.1985 C.ar    1  UNL1       -0.0596
     20 C          -4.1206   -1.6668   -0.0665 C.ar    1  UNL1       -0.0597
     21 C          -3.0815   -0.7306   -0.1594 C.ar    1  UNL1       -0.0357
     22 C          -1.7614   -1.1748    0.0412 C.ar    1  UNL1        0.0739
     23 H           2.3941   -3.4521    0.0961 H       1  UNL1        0.0625
     24 H           4.8176   -3.0351   -0.1828 H       1  UNL1        0.0618
     25 H           5.6418   -0.7118   -0.4672 H       1  UNL1        0.0618
     26 H           4.0944    1.1647   -0.4621 H       1  UNL1        0.0624
     27 H           2.7057    2.7234   -0.2911 H       1  UNL1        0.0624
     28 H           1.0694    4.4930   -0.1375 H       1  UNL1        0.0620
     29 H          -2.5969    3.9919   -0.1715 H       1  UNL1        0.0278
     30 H          -1.7414    4.5164    1.3007 H       1  UNL1        0.0278
     31 H          -1.3018    5.1821   -0.2913 H       1  UNL1        0.0278
     32 H          -2.0710    1.6452    0.3540 H       1  UNL1        0.0641
     33 H          -2.3325   -4.5026    0.5251 H       1  UNL1        0.0639
     34 H          -4.6839   -3.7174    0.2646 H       1  UNL1        0.0618
     35 H          -5.1480   -1.3390   -0.2142 H       1  UNL1        0.0618
     36 H          -3.3274    0.2923   -0.4131 H       1  UNL1        0.0639
@<TRIPOS>BOND
     1     1     2   ar
     2     2     3   ar
     3     3     4   ar
     4     4     5   ar
     5     5     6   ar
     6     6     7   ar
     7     7     8   ar
     8     8     9   ar
     9     9    10   ar
    10    10    11   ar
    11    11    12   ar
    12    12    13    1
    13    12    14   ar
    14    14    15   ar
    15     2    16   ar
    16    16    17   ar
    17    17    18   ar
    18    18    19   ar
    19    19    20   ar
    20    20    21   ar
    21    21    22   ar
    22    15     1   ar
    23    22    17   ar
    24    22     1   ar
    25     8     3   ar
    26    15     9   ar
    27     4    23    1
    28     5    24    1
    29     6    25    1
    30     7    26    1
    31    10    27    1
    32    11    28    1
    33    13    29    1
    34    13    30    1
    35    13    31    1
    36    14    32    1
    37    18    33    1
    38    19    34    1
    39    20    35    1
    40    21    36    1
