@<TRIPOS>MOLECULE
*****
 37 41 0 0 0
SMALL
GASTEIGER

@<TRIPOS>ATOM
      1 N          -0.6525    0.7273   -0.0169 N.ar    1  UNL1       -0.2914
      2 C          -1.8840    0.1374    0.2353 C.ar    1  UNL1        0.1469
      3 C          -2.0211   -1.3072    0.3727 C.ar    1  UNL1        0.0256
      4 C          -3.2881   -1.8794    0.5675 C.ar    1  UNL1       -0.0505
      5 C          -3.4287   -3.2590    0.6714 C.ar    1  UNL1       -0.0611
      6 C          -2.3041   -4.0694    0.5784 C.ar    1  UNL1       -0.0611
      7 C          -1.0387   -3.5011    0.3869 C.ar    1  UNL1       -0.0533
      8 C          -0.8639   -2.1075    0.2830 C.ar    1  UNL1       -0.0053
      9 C           0.4600   -1.4446    0.1054 C.ar    1  UNL1        0.0069
     10 C           1.6648   -2.1742    0.0768 C.ar    1  UNL1       -0.0486
     11 C           2.9112   -1.5469   -0.0420 C.ar    1  UNL1       -0.0192
     12 C           2.9895   -0.1636   -0.1157 C.ar    1  UNL1        0.1221
     13 O           4.1370    0.5750   -0.2021 O.3     1  UNL1       -0.4950
     14 C           5.3659   -0.1410   -0.2174 C.3     1  UNL1        0.0788
     15 C           1.8127    0.5878   -0.0949 C.ar    1  UNL1        0.0046
     16 C           0.5579   -0.0320   -0.0174 C.ar    1  UNL1        0.0598
     17 N          -2.8486    1.0281    0.3302 N.ar    1  UNL1       -0.2272
     18 C          -2.2645    2.2235    0.0278 C.ar    1  UNL1        0.0900
     19 C          -2.8751    3.4858   -0.0549 C.ar    1  UNL1       -0.0342
     20 C          -2.1148    4.5867   -0.4519 C.ar    1  UNL1       -0.0596
     21 C          -0.7722    4.4288   -0.7780 C.ar    1  UNL1       -0.0597
     22 C          -0.1445    3.1781   -0.6939 C.ar    1  UNL1       -0.0357
     23 C          -0.9019    2.0777   -0.2515 C.ar    1  UNL1        0.0739
     24 H          -4.1678   -1.2414    0.6328 H       1  UNL1        0.0625
     25 H          -4.4119   -3.6969    0.8207 H       1  UNL1        0.0618
     26 H          -2.4068   -5.1492    0.6560 H       1  UNL1        0.0618
     27 H          -0.1988   -4.1857    0.3232 H       1  UNL1        0.0624
     28 H           1.6713   -3.2574    0.1567 H       1  UNL1        0.0625
     29 H           3.7971   -2.1733   -0.0551 H       1  UNL1        0.0654
     30 H           5.4301   -0.7956   -1.0929 H       1  UNL1        0.0660
     31 H           6.1775    0.5895   -0.2876 H       1  UNL1        0.0660
     32 H           5.5052   -0.7057    0.7104 H       1  UNL1        0.0660
     33 H           1.9279    1.6621   -0.0960 H       1  UNL1        0.0675
     34 H          -3.9309    3.5887    0.1721 H       1  UNL1        0.0639
     35 H          -2.5819    5.5654   -0.5256 H       1  UNL1        0.0618
     36 H          -0.1983    5.2907   -1.1135 H       1  UNL1        0.0618
     37 H           0.8905    3.0985   -1.0001 H       1  UNL1        0.0639
@<TRIPOS>BOND
     1     1     2   ar
     2     2     3   ar
     3     3     4   ar
     4     4     5   ar
     5     5     6   ar
     6     6     7   ar
     7     7     8   ar
     8     8     9   ar
     9     9    10   ar
    10    10    11   ar
    11    11    12   ar
    12    12    13    1
    13    13    14    1
    14    12    15   ar
    15    15    16   ar
    16     2    17   ar
    17    17    18   ar
    18    18    19   ar
    19    19    20   ar
    20    20    21   ar
    21    21    22   ar
    22    22    23   ar
    23    16     1   ar
    24    23    18   ar
    25    23     1   ar
    26     8     3   ar
    27    16     9   ar
    28     4    24    1
    29     5    25    1
    30     6    26    1
    31     7    27    1
    32    10    28    1
    33    11    29    1
    34    14    30    1
    35    14    31    1
    36    14    32    1
    37    15    33    1
    38    19    34    1
    39    20    35    1
    40    21    36    1
    41    22    37    1
