@<TRIPOS>MOLECULE
*****
 33 37 0 0 0
SMALL
GASTEIGER

@<TRIPOS>ATOM
      1 N           0.6909   -0.1702    0.0093 N.ar    1  UNL1       -0.2915
      2 C           0.3059    1.1598   -0.1262 C.ar    1  UNL1        0.1469
      3 C          -1.0962    1.5557   -0.1504 C.ar    1  UNL1        0.0256
      4 C          -1.4424    2.9099   -0.2890 C.ar    1  UNL1       -0.0505
      5 C          -2.7775    3.2979   -0.3132 C.ar    1  UNL1       -0.0611
      6 C          -3.7696    2.3332   -0.1991 C.ar    1  UNL1       -0.0611
      7 C          -3.4266    0.9826   -0.0609 C.ar    1  UNL1       -0.0533
      8 C          -2.0829    0.5591   -0.0330 C.ar    1  UNL1       -0.0053
      9 C          -1.6590   -0.8629    0.1117 C.ar    1  UNL1        0.0067
     10 C          -2.6014   -1.9066    0.2336 C.ar    1  UNL1       -0.0520
     11 C          -2.2131   -3.2397    0.3694 C.ar    1  UNL1       -0.0611
     12 C          -0.8674   -3.5660    0.3870 C.ar    1  UNL1       -0.0598
     13 C           0.0953   -2.5631    0.2691 C.ar    1  UNL1       -0.0372
     14 C          -0.2786   -1.2196    0.1321 C.ar    1  UNL1        0.0563
     15 N           1.3360    1.9716   -0.2247 N.ar    1  UNL1       -0.2272
     16 C           2.4346    1.1710   -0.1539 C.ar    1  UNL1        0.0900
     17 C           3.7826    1.5638   -0.2122 C.ar    1  UNL1       -0.0342
     18 C           4.7819    0.5964   -0.1226 C.ar    1  UNL1       -0.0596
     19 C           4.4417   -0.7423    0.0230 C.ar    1  UNL1       -0.0597
     20 C           3.1013   -1.1526    0.0829 C.ar    1  UNL1       -0.0357
     21 C           2.0886   -0.1779   -0.0073 C.ar    1  UNL1        0.0739
     22 H          -0.6616    3.6634   -0.3782 H       1  UNL1        0.0625
     23 H          -3.0387    4.3471   -0.4207 H       1  UNL1        0.0618
     24 H          -4.8164    2.6272   -0.2170 H       1  UNL1        0.0618
     25 H          -4.2471    0.2772    0.0238 H       1  UNL1        0.0624
     26 H          -3.6693   -1.7105    0.2263 H       1  UNL1        0.0624
     27 H          -2.9656   -4.0191    0.4609 H       1  UNL1        0.0618
     28 H          -0.5611   -4.6041    0.4926 H       1  UNL1        0.0618
     29 H           1.1207   -2.8906    0.2909 H       1  UNL1        0.0638
     30 H           4.0308    2.6138   -0.3261 H       1  UNL1        0.0639
     31 H           5.8264    0.8934   -0.1670 H       1  UNL1        0.0618
     32 H           5.2305   -1.4893    0.0920 H       1  UNL1        0.0618
     33 H           2.9077   -2.2087    0.1968 H       1  UNL1        0.0639
@<TRIPOS>BOND
     1     1     2   ar
     2     2     3   ar
     3     3     4   ar
     4     4     5   ar
     5     5     6   ar
     6     6     7   ar
     7     7     8   ar
     8     8     9   ar
     9     9    10   ar
    10    10    11   ar
    11    11    12   ar
    12    12    13   ar
    13    13    14   ar
    14     2    15   ar
    15    15    16   ar
    16    16    17   ar
    17    17    18   ar
    18    18    19   ar
    19    19    20   ar
    20    20    21   ar
    21    14     1   ar
    22    21    16   ar
    23    21     1   ar
    24     8     3   ar
    25    14     9   ar
    26     4    22    1
    27     5    23    1
    28     6    24    1
    29     7    25    1
    30    10    26    1
    31    11    27    1
    32    12    28    1
    33    13    29    1
    34    17    30    1
    35    18    31    1
    36    19    32    1
    37    20    33    1
