@<TRIPOS>MOLECULE
*****
 32 36 0 0 0
SMALL
GASTEIGER

@<TRIPOS>ATOM
      1 N           0.6982    0.1925    0.0277 N.ar    1  UNL1       -0.2759
      2 C           0.2961   -1.1186    0.2004 C.ar    1  UNL1        0.1480
      3 C          -1.1151   -1.4816    0.1404 C.ar    1  UNL1        0.0257
      4 C          -1.5114   -2.8149    0.3171 C.ar    1  UNL1       -0.0505
      5 C          -2.8580   -3.1592    0.2595 C.ar    1  UNL1       -0.0611
      6 C          -3.8096   -2.1728    0.0255 C.ar    1  UNL1       -0.0611
      7 C          -3.4178   -0.8403   -0.1515 C.ar    1  UNL1       -0.0532
      8 C          -2.0637   -0.4614   -0.0987 C.ar    1  UNL1       -0.0037
      9 C          -1.5871    0.9377   -0.2790 C.ar    1  UNL1        0.0257
     10 C          -2.4477    2.0209   -0.5207 C.ar    1  UNL1       -0.0491
     11 C          -1.9478    3.3134   -0.6824 C.ar    1  UNL1       -0.0429
     12 C          -0.5840    3.5071   -0.5997 C.ar    1  UNL1        0.0299
     13 N           0.2924    2.5119   -0.3706 N.ar    1  UNL1       -0.2369
     14 C          -0.2128    1.2569   -0.2152 C.ar    1  UNL1        0.1473
     15 N           1.3215   -1.9198    0.4114 N.ar    1  UNL1       -0.2271
     16 C           2.4259   -1.1091    0.3756 C.ar    1  UNL1        0.0901
     17 C           3.7763   -1.4549    0.5420 C.ar    1  UNL1       -0.0342
     18 C           4.7482   -0.4517    0.4649 C.ar    1  UNL1       -0.0596
     19 C           4.3835    0.8725    0.2265 C.ar    1  UNL1       -0.0597
     20 C           3.0423    1.2363    0.0581 C.ar    1  UNL1       -0.0357
     21 C           2.0776    0.2198    0.1378 C.ar    1  UNL1        0.0753
     22 H          -0.7640   -3.5851    0.5001 H       1  UNL1        0.0625
     23 H          -3.1615   -4.1937    0.3969 H       1  UNL1        0.0618
     24 H          -4.8633   -2.4381   -0.0202 H       1  UNL1        0.0618
     25 H          -4.2045   -0.1137   -0.3309 H       1  UNL1        0.0624
     26 H          -3.5231    1.8893   -0.5893 H       1  UNL1        0.0625
     27 H          -2.6139    4.1491   -0.8690 H       1  UNL1        0.0633
     28 H          -0.1480    4.4950   -0.7188 H       1  UNL1        0.0830
     29 H           4.0516   -2.4874    0.7271 H       1  UNL1        0.0639
     30 H           5.7966   -0.7099    0.5925 H       1  UNL1        0.0618
     31 H           5.1532    1.6395    0.1698 H       1  UNL1        0.0618
     32 H           2.7698    2.2704   -0.1271 H       1  UNL1        0.0639
@<TRIPOS>BOND
     1     1     2   ar
     2     2     3   ar
     3     3     4   ar
     4     4     5   ar
     5     5     6   ar
     6     6     7   ar
     7     7     8   ar
     8     8     9   ar
     9     9    10   ar
    10    10    11   ar
    11    11    12   ar
    12    12    13   ar
    13    13    14   ar
    14     2    15   ar
    15    15    16   ar
    16    16    17   ar
    17    17    18   ar
    18    18    19   ar
    19    19    20   ar
    20    20    21   ar
    21    14     1   ar
    22    21    16   ar
    23    21     1   ar
    24     8     3   ar
    25    14     9   ar
    26     4    22    1
    27     5    23    1
    28     6    24    1
    29     7    25    1
    30    10    26    1
    31    11    27    1
    32    12    28    1
    33    17    29    1
    34    18    30    1
    35    19    31    1
    36    20    32    1
