@<TRIPOS>MOLECULE
*****
 41 47 0 0 0
SMALL
GASTEIGER

@<TRIPOS>ATOM
      1 SI          5.1873   -0.1881   -1.4412 Si      1  UNL1        0.0000
      2 C           6.9552   -0.2046   -0.7334 C.2     1  UNL1        0.0000
      3 C           6.9387   -0.1506    0.6155 C.2     1  UNL1        0.0000
      4 C           5.6328   -0.0945    1.1992 C.ar    1  UNL1        0.0000
      5 C           5.2610   -0.0329    2.5130 C.ar    1  UNL1        0.0000
      6 S           3.5455    0.0159    2.6540 S.2     1  UNL1        0.0000
      7 C           3.2903   -0.0463    0.9334 C.ar    1  UNL1        0.0000
      8 C           4.5114   -0.1014    0.3182 C.ar    1  UNL1        0.0000
      9 C           1.9467   -0.0337    0.4063 C.ar    1  UNL1        0.0000
     10 C           1.5085   -0.0785   -0.9212 C.ar    1  UNL1        0.0000
     11 C           0.1227   -0.0397   -0.8486 C.ar    1  UNL1        0.0000
     12 C          -0.9136   -0.0538   -1.8153 C.ar    1  UNL1        0.0000
     13 C          -0.7873   -0.1145   -3.1743 C.ar    1  UNL1        0.0000
     14 N          -2.0830   -0.1021   -3.6693 N.ar    1  UNL1        0.0000
     15 C          -3.0044   -0.0346   -2.6329 C.ar    1  UNL1        0.0000
     16 C          -2.2736   -0.0046   -1.4781 C.ar    1  UNL1        0.0000
     17 C          -2.7338    0.0643   -0.1276 C.ar    1  UNL1        0.0000
     18 C          -4.0011    0.1218    0.4668 C.ar    1  UNL1        0.0000
     19 C          -5.3399    0.1376    0.0298 C.ar    1  UNL1        0.0000
     20 C          -6.3731    0.2039    0.9725 C.ar    1  UNL1        0.0000
     21 C          -6.0921    0.2542    2.3355 C.ar    1  UNL1        0.0000
     22 C          -4.7744    0.2402    2.8011 C.ar    1  UNL1        0.0000
     23 C          -3.7465    0.1738    1.8518 C.ar    1  UNL1        0.0000
     24 N          -2.3707    0.1466    2.0413 N.ar    1  UNL1        0.0000
     25 C          -1.7551    0.0797    0.8324 C.ar    1  UNL1        0.0000
     26 C          -0.2660    0.0256    0.4586 C.ar    1  UNL1        0.0000
     27 O           0.8359    0.0304    1.2445 O.2     1  UNL1        0.0000
     28 H           4.8740   -1.4577   -2.1424 H       1  UNL1        0.0000
     29 H           4.9369    1.0361   -2.2412 H       1  UNL1        0.0000
     30 H           7.8166   -0.2519   -1.3797 H       1  UNL1        0.0000
     31 H           7.8386   -0.1492    1.2201 H       1  UNL1        0.0000
     32 H           5.8819   -0.0133    3.3975 H       1  UNL1        0.0000
     33 H           2.1161   -0.1319   -1.8089 H       1  UNL1        0.0000
     34 H           0.0621   -0.1646   -3.8408 H       1  UNL1        0.0000
     35 H          -2.3252   -0.1374   -4.6508 H       1  UNL1        0.0000
     36 H          -4.0635   -0.0163   -2.8432 H       1  UNL1        0.0000
     37 H          -5.5786    0.0991   -1.0274 H       1  UNL1        0.0000
     38 H          -7.4062    0.2160    0.6340 H       1  UNL1        0.0000
     39 H          -6.9103    0.3053    3.0504 H       1  UNL1        0.0000
     40 H          -4.5616    0.2796    3.8645 H       1  UNL1        0.0000
     41 H          -1.9023    0.1723    2.9360 H       1  UNL1        0.0000
@<TRIPOS>BOND
     1     1     2    1
     2     2     3    2
     3     3     4    1
     4     4     5   ar
     5     5     6   ar
     6     6     7   ar
     7     7     8   ar
     8     7     9    1
     9     9    10   ar
    10    10    11   ar
    11    11    12   ar
    12    12    13   ar
    13    13    14   ar
    14    14    15   ar
    15    15    16   ar
    16    16    17   ar
    17    17    18   ar
    18    18    19   ar
    19    19    20   ar
    20    20    21   ar
    21    21    22   ar
    22    22    23   ar
    23    23    24   ar
    24    24    25   ar
    25    25    26   ar
    26    26    27   ar
    27     8     1    1
    28    27     9   ar
    29     8     4   ar
    30    26    11   ar
    31    16    12   ar
    32    25    17   ar
    33    23    18   ar
    34     1    28    1
    35     1    29    1
    36     2    30    1
    37     3    31    1
    38     5    32    1
    39    10    33    1
    40    13    34    1
    41    14    35    1
    42    15    36    1
    43    19    37    1
    44    20    38    1
    45    21    39    1
    46    22    40    1
    47    24    41    1
