@<TRIPOS>MOLECULE
*****
 36 41 0 0 0
SMALL
GASTEIGER

@<TRIPOS>ATOM
      1 N          -1.2503   -0.3505   -0.1268 N.ar    1  UNL1       -0.2855
      2 C          -1.6032    0.9498    0.2056 C.ar    1  UNL1        0.1473
      3 C          -0.5701    1.9437    0.4957 C.ar    1  UNL1        0.0256
      4 C          -0.9459    3.2541    0.8301 C.ar    1  UNL1       -0.0505
      5 C           0.0216    4.2123    1.1090 C.ar    1  UNL1       -0.0611
      6 C           1.3653    3.8626    1.0541 C.ar    1  UNL1       -0.0611
      7 C           1.7475    2.5559    0.7208 C.ar    1  UNL1       -0.0533
      8 C           0.7968    1.5700    0.4351 C.ar    1  UNL1       -0.0041
      9 C           1.1430    0.1683    0.0759 C.ar    1  UNL1        0.0217
     10 C           2.4264   -0.5254   -0.0712 C.ar    1  UNL1       -0.0010
     11 C           3.7815   -0.1144    0.0745 C.ar    1  UNL1       -0.0529
     12 C           4.8513   -0.9971   -0.1282 C.ar    1  UNL1       -0.0611
     13 C           4.6156   -2.3122   -0.4808 C.ar    1  UNL1       -0.0607
     14 C           3.3093   -2.7645   -0.6360 C.ar    1  UNL1       -0.0473
     15 C           2.2359   -1.8707   -0.4305 C.ar    1  UNL1        0.0219
     16 S           0.5753   -2.2660   -0.5804 S.2     1  UNL1       -0.0701
     17 C           0.1010   -0.7119   -0.1846 C.ar    1  UNL1        0.0952
     18 N          -2.9069    1.1277    0.2164 N.ar    1  UNL1       -0.2271
     19 C          -3.4355   -0.0869   -0.1178 C.ar    1  UNL1        0.0900
     20 C          -4.7892   -0.4376   -0.2475 C.ar    1  UNL1       -0.0342
     21 C          -5.1234   -1.7466   -0.6012 C.ar    1  UNL1       -0.0596
     22 C          -4.1261   -2.6916   -0.8223 C.ar    1  UNL1       -0.0597
     23 C          -2.7703   -2.3609   -0.6978 C.ar    1  UNL1       -0.0357
     24 C          -2.4392   -1.0411   -0.3414 C.ar    1  UNL1        0.0744
     25 H          -1.9997    3.5245    0.8722 H       1  UNL1        0.0625
     26 H          -0.2731    5.2259    1.3676 H       1  UNL1        0.0618
     27 H           2.1265    4.6088    1.2715 H       1  UNL1        0.0618
     28 H           2.8075    2.3598    0.6984 H       1  UNL1        0.0624
     29 H           4.0423    0.8992    0.3485 H       1  UNL1        0.0624
     30 H           5.8722   -0.6422   -0.0066 H       1  UNL1        0.0618
     31 H           5.4475   -2.9942   -0.6373 H       1  UNL1        0.0618
     32 H           3.1196   -3.7983   -0.9133 H       1  UNL1        0.0629
     33 H          -5.5583    0.3073   -0.0727 H       1  UNL1        0.0639
     34 H          -6.1691   -2.0257   -0.7036 H       1  UNL1        0.0618
     35 H          -4.4028   -3.7077   -1.0974 H       1  UNL1        0.0618
     36 H          -2.0231   -3.1242   -0.8781 H       1  UNL1        0.0639
@<TRIPOS>BOND
     1     1     2   ar
     2     2     3   ar
     3     3     4   ar
     4     4     5   ar
     5     5     6   ar
     6     6     7   ar
     7     7     8   ar
     8     8     9   ar
     9     9    10   ar
    10    10    11   ar
    11    11    12   ar
    12    12    13   ar
    13    13    14   ar
    14    14    15   ar
    15    15    16   ar
    16    16    17   ar
    17     2    18   ar
    18    18    19   ar
    19    19    20   ar
    20    20    21   ar
    21    21    22   ar
    22    22    23   ar
    23    23    24   ar
    24    17     1   ar
    25    24    19   ar
    26    24     1   ar
    27     8     3   ar
    28    17     9   ar
    29    15    10   ar
    30     4    25    1
    31     5    26    1
    32     6    27    1
    33     7    28    1
    34    11    29    1
    35    12    30    1
    36    13    31    1
    37    14    32    1
    38    20    33    1
    39    21    34    1
    40    22    35    1
    41    23    36    1
