@<TRIPOS>MOLECULE
*****
 31 35 0 0 0
SMALL
GASTEIGER

@<TRIPOS>ATOM
      1 N           0.6331    0.1959    0.2350 N.ar    1  UNL1       -0.2747
      2 C           0.1080   -1.0820    0.1359 C.ar    1  UNL1        0.1481
      3 C          -1.3307   -1.2902   -0.0084 C.ar    1  UNL1        0.0271
      4 C          -1.8695   -2.5785   -0.1092 C.ar    1  UNL1       -0.0505
      5 C          -3.2457   -2.7511   -0.2462 C.ar    1  UNL1       -0.0611
      6 C          -4.0851   -1.6399   -0.2828 C.ar    1  UNL1       -0.0611
      7 C          -3.5508   -0.3523   -0.1825 C.ar    1  UNL1       -0.0518
      8 C          -2.1670   -0.1541   -0.0437 C.ar    1  UNL1        0.0146
      9 C          -1.5566    1.1855    0.0658 C.ar    1  UNL1        0.1144
     10 N          -2.3938    2.2583    0.0279 N.ar    1  UNL1       -0.2498
     11 C          -1.8113    3.4755    0.1301 C.ar    1  UNL1        0.0465
     12 C          -0.4441    3.6378    0.2658 C.ar    1  UNL1        0.0480
     13 N           0.4090    2.5911    0.3062 N.ar    1  UNL1       -0.2339
     14 C          -0.1695    1.3630    0.2040 C.ar    1  UNL1        0.1659
     15 N           1.0523   -1.9988    0.1900 N.ar    1  UNL1       -0.2271
     16 C           2.2260   -1.3027    0.3280 C.ar    1  UNL1        0.0901
     17 C           3.5355   -1.7970    0.4330 C.ar    1  UNL1       -0.0342
     18 C           4.5934   -0.8914    0.5681 C.ar    1  UNL1       -0.0596
     19 C           4.3533    0.4819    0.5984 C.ar    1  UNL1       -0.0597
     20 C           3.0547    0.9939    0.4952 C.ar    1  UNL1       -0.0357
     21 C           2.0041    0.0736    0.3602 C.ar    1  UNL1        0.0754
     22 H          -1.2149   -3.4478   -0.0807 H       1  UNL1        0.0625
     23 H          -3.6619   -3.7524   -0.3242 H       1  UNL1        0.0618
     24 H          -5.1591   -1.7732   -0.3897 H       1  UNL1        0.0618
     25 H          -4.2253    0.5020   -0.2134 H       1  UNL1        0.0624
     26 H          -2.4824    4.3268    0.0994 H       1  UNL1        0.0845
     27 H           0.0040    4.6220    0.3463 H       1  UNL1        0.0846
     28 H           3.7145   -2.8664    0.4086 H       1  UNL1        0.0639
     29 H           5.6113   -1.2647    0.6502 H       1  UNL1        0.0618
     30 H           5.1895    1.1702    0.7042 H       1  UNL1        0.0618
     31 H           2.8789    2.0647    0.5199 H       1  UNL1        0.0639
@<TRIPOS>BOND
     1     1     2   ar
     2     2     3   ar
     3     3     4   ar
     4     4     5   ar
     5     5     6   ar
     6     6     7   ar
     7     7     8   ar
     8     8     9   ar
     9     9    10   ar
    10    10    11   ar
    11    11    12   ar
    12    12    13   ar
    13    13    14   ar
    14     2    15   ar
    15    15    16   ar
    16    16    17   ar
    17    17    18   ar
    18    18    19   ar
    19    19    20   ar
    20    20    21   ar
    21    14     1   ar
    22    21    16   ar
    23    21     1   ar
    24     8     3   ar
    25    14     9   ar
    26     4    22    1
    27     5    23    1
    28     6    24    1
    29     7    25    1
    30    11    26    1
    31    12    27    1
    32    17    28    1
    33    18    29    1
    34    19    30    1
    35    20    31    1
