@<TRIPOS>MOLECULE
*****
 30 33 0 0 0
SMALL
GASTEIGER

@<TRIPOS>ATOM
      1 N           1.6742   -0.3516    0.3172 N.ar    1  UNL1        0.0000
      2 C           2.1220   -1.6159    0.7608 C.ar    1  UNL1        0.0000
      3 C           3.4273   -1.8742    0.8724 C.ar    1  UNL1        0.0000
      4 C           4.4846   -0.9410    0.5692 C.ar    1  UNL1        0.0000
      5 C           4.2589    0.3057    0.1356 C.ar    1  UNL1        0.0000
      6 B           2.7548    0.6764   -0.0183 B       1  UNL1        0.0000
      7 C           2.2759    2.0714   -0.5074 C.ar    1  UNL1        0.0000
      8 C           0.9602    2.2922   -0.6063 C.ar    1  UNL1        0.0000
      9 C          -0.0267    1.2633   -0.2689 C.ar    1  UNL1        0.0000
     10 C           0.2972   -0.0004    0.1723 C.ar    1  UNL1        0.0000
     11 C          -0.6745   -0.9249    0.4740 C.ar    1  UNL1        0.0000
     12 C          -2.0241   -0.5971    0.3376 C.ar    1  UNL1        0.0000
     13 C          -2.9951   -1.5398    0.6456 C.ar    1  UNL1        0.0000
     14 C          -4.3270   -1.2130    0.5098 C.ar    1  UNL1        0.0000
     15 C          -4.6430    0.0533    0.0679 C.ar    1  UNL1        0.0000
     16 C          -3.6902    0.9848   -0.2366 C.ar    1  UNL1        0.0000
     17 C          -2.3475    0.6686   -0.1043 C.ar    1  UNL1        0.0000
     18 C          -1.3575    1.5809   -0.4015 C.ar    1  UNL1        0.0000
     19 H           1.3885   -2.3678    1.0071 H       1  UNL1        0.0000
     20 H           3.6942   -2.8702    1.2203 H       1  UNL1        0.0000
     21 H           5.5410   -1.1909    0.6737 H       1  UNL1        0.0000
     22 H           5.0318    1.0024   -0.0910 H       1  UNL1        0.0000
     23 H           3.0023    2.8148   -0.7509 H       1  UNL1        0.0000
     24 H           0.6783    3.2738   -0.9495 H       1  UNL1        0.0000
     25 H          -0.4274   -1.9217    0.8218 H       1  UNL1        0.0000
     26 H          -2.7147   -2.5333    0.9929 H       1  UNL1        0.0000
     27 H          -5.1108   -1.9466    0.7490 H       1  UNL1        0.0000
     28 H          -5.6758    0.3382   -0.0482 H       1  UNL1        0.0000
     29 H          -3.9169    1.9825   -0.5843 H       1  UNL1        0.0000
     30 H          -1.6598    2.5802   -0.7511 H       1  UNL1        0.0000
@<TRIPOS>BOND
     1     1     2   ar
     2     2     3   ar
     3     3     4   ar
     4     4     5   ar
     5     5     6   ar
     6     6     7   ar
     7     7     8   ar
     8     8     9   ar
     9     9    10   ar
    10    10    11   ar
    11    11    12   ar
    12    12    13   ar
    13    13    14   ar
    14    14    15   ar
    15    15    16   ar
    16    12    17   ar
    17    17    18   ar
    18     6     1   ar
    19    10     1   ar
    20    18     9   ar
    21    17    16   ar
    22     2    19    1
    23     3    20    1
    24     4    21    1
    25     5    22    1
    26     7    23    1
    27     8    24    1
    28    11    25    1
    29    13    26    1
    30    14    27    1
    31    15    28    1
    32    16    29    1
    33    18    30    1
