@<TRIPOS>MOLECULE
*****
 24 26 0 0 0
SMALL
GASTEIGER

@<TRIPOS>ATOM
      1 N           0.6990    0.3014   -0.0801 N.ar    1  UNL1        0.0000
      2 C           1.5528    1.4221   -0.1850 C.ar    1  UNL1        0.0000
      3 C           2.8718    1.2856   -0.3295 C.ar    1  UNL1        0.0000
      4 C           3.5632    0.0043   -0.3938 C.ar    1  UNL1        0.0000
      5 C           2.8952   -1.1498   -0.3092 C.ar    1  UNL1        0.0000
      6 B           1.3537   -1.0846   -0.1394 B       1  UNL1        0.0000
      7 C           0.4137   -2.3103   -0.0240 C.ar    1  UNL1        0.0000
      8 C          -0.8924   -2.0913    0.1183 C.ar    1  UNL1        0.0000
      9 C          -1.4774   -0.7558    0.1704 C.ar    1  UNL1        0.0000
     10 C          -0.7033    0.4094    0.0739 C.ar    1  UNL1        0.0000
     11 C          -1.3056    1.6430    0.1289 C.ar    1  UNL1        0.0000
     12 C          -2.6983    1.7251    0.2820 C.ar    1  UNL1        0.0000
     13 C          -3.4744    0.5955    0.3784 C.ar    1  UNL1        0.0000
     14 C          -2.8571   -0.6302    0.3217 C.ar    1  UNL1        0.0000
     15 H           1.1623    2.3971   -0.1510 H       1  UNL1        0.0000
     16 H           3.4442    2.1996   -0.4013 H       1  UNL1        0.0000
     17 H           4.6390   -0.0038   -0.5127 H       1  UNL1        0.0000
     18 H           3.3838   -2.1161   -0.3541 H       1  UNL1        0.0000
     19 H           0.8695   -3.2828   -0.0652 H       1  UNL1        0.0000
     20 H          -1.5392   -2.9465    0.1978 H       1  UNL1        0.0000
     21 H          -0.7124    2.5121    0.0551 H       1  UNL1        0.0000
     22 H          -3.1318    2.7202    0.3206 H       1  UNL1        0.0000
     23 H          -4.5678    0.6682    0.4985 H       1  UNL1        0.0000
     24 H          -3.4887   -1.5124    0.3998 H       1  UNL1        0.0000
@<TRIPOS>BOND
     1     1     2   ar
     2     2     3   ar
     3     3     4   ar
     4     4     5   ar
     5     5     6   ar
     6     6     7   ar
     7     7     8   ar
     8     8     9   ar
     9     9    10   ar
    10    10    11   ar
    11    11    12   ar
    12    12    13   ar
    13    13    14   ar
    14     6     1   ar
    15    10     1   ar
    16    14     9   ar
    17     2    15    1
    18     3    16    1
    19     4    17    1
    20     5    18    1
    21     7    19    1
    22     8    20    1
    23    11    21    1
    24    12    22    1
    25    13    23    1
    26    14    24    1
