@<TRIPOS>MOLECULE
*****
 21 23 0 0 0
SMALL
GASTEIGER

@<TRIPOS>ATOM
      1 N          -0.6825    0.2908    0.0054 N.ar    1  UNL1       -0.2993
      2 C          -1.5428    1.3835    0.1358 C.ar    1  UNL1        0.0118
      3 C          -2.8706    1.1773    0.1575 C.ar    1  UNL1       -0.0450
      4 C          -3.3744   -0.1824    0.0440 C.ar    1  UNL1       -0.0569
      5 C          -2.5411   -1.2336   -0.0816 C.ar    1  UNL1       -0.0188
      6 C          -1.1325   -1.0232   -0.1053 C.ar    1  UNL1        0.1387
      7 N          -0.1350   -1.8734   -0.2170 N.ar    1  UNL1       -0.2278
      8 C           1.0002   -1.1019   -0.1790 C.ar    1  UNL1        0.0900
      9 C           0.6968    0.2517   -0.0411 C.ar    1  UNL1        0.0733
     10 C           1.6849    1.2444    0.0225 C.ar    1  UNL1       -0.0357
     11 C           3.0178    0.8250   -0.0587 C.ar    1  UNL1       -0.0597
     12 C           3.3450   -0.5246   -0.1969 C.ar    1  UNL1       -0.0596
     13 C           2.3434   -1.5008   -0.2585 C.ar    1  UNL1       -0.0342
     14 H          -1.0978    2.3663    0.2153 H       1  UNL1        0.0813
     15 H          -3.5778    1.9938    0.2569 H       1  UNL1        0.0632
     16 H          -4.4502   -0.3290    0.0635 H       1  UNL1        0.0619
     17 H          -2.9128   -2.2483   -0.1664 H       1  UNL1        0.0654
     18 H           1.4367    2.2947    0.1299 H       1  UNL1        0.0639
     19 H           3.8139    1.5657   -0.0131 H       1  UNL1        0.0618
     20 H           4.3884   -0.8248   -0.2578 H       1  UNL1        0.0618
     21 H           2.5905   -2.5513   -0.3659 H       1  UNL1        0.0639
@<TRIPOS>BOND
     1     1     2   ar
     2     2     3   ar
     3     3     4   ar
     4     4     5   ar
     5     5     6   ar
     6     6     7   ar
     7     7     8   ar
     8     8     9   ar
     9     9    10   ar
    10    10    11   ar
    11    11    12   ar
    12    12    13   ar
    13     6     1   ar
    14    13     8   ar
    15     9     1   ar
    16     2    14    1
    17     3    15    1
    18     4    16    1
    19     5    17    1
    20    10    18    1
    21    11    19    1
    22    12    20    1
    23    13    21    1
