@<TRIPOS>MOLECULE
*****
 23 25 0 0 0
SMALL
GASTEIGER

@<TRIPOS>ATOM
      1 N           1.9310    0.7116   -0.4321 N.ar    1  UNL1       -0.2036
      2 C           3.0583    1.3894   -0.8808 C.ar    1  UNL1        0.0344
      3 C           4.2613    1.0982   -0.3679 C.ar    1  UNL1       -0.0252
      4 C           4.2610    0.0320    0.6742 C.ar    1  UNL1        0.0329
      5 N           3.2265   -0.6178    1.1131 N.ar    1  UNL1       -0.2190
      6 C           2.0267   -0.2765    0.5519 C.ar    1  UNL1        0.2533
      7 N           0.8262   -0.7521    0.7891 N.ar    1  UNL1       -0.1892
      8 C           0.0083   -0.0434   -0.0588 C.ar    1  UNL1        0.1838
      9 C          -1.4343   -0.2720   -0.1090 C.ar    1  UNL1        0.0209
     10 C          -2.2536    0.4609   -0.9808 C.ar    1  UNL1       -0.0510
     11 C          -3.6324    0.2351   -1.0216 C.ar    1  UNL1       -0.0611
     12 C          -4.2068   -0.7256   -0.1915 C.ar    1  UNL1       -0.0617
     13 C          -3.4055   -1.4612    0.6795 C.ar    1  UNL1       -0.0611
     14 C          -2.0270   -1.2357    0.7205 C.ar    1  UNL1       -0.0510
     15 N           0.6474    0.8585   -0.8192 N.ar    1  UNL1       -0.1437
     16 H           2.8932    2.1379   -1.6438 H       1  UNL1        0.0832
     17 H           5.1877    1.5730   -0.6563 H       1  UNL1        0.0648
     18 H           5.2526   -0.2060    1.0949 H       1  UNL1        0.0831
     19 H          -1.8216    1.2147   -1.6357 H       1  UNL1        0.0625
     20 H          -4.2554    0.8100   -1.7017 H       1  UNL1        0.0618
     21 H          -5.2790   -0.9013   -0.2232 H       1  UNL1        0.0618
     22 H          -3.8504   -2.2113    1.3283 H       1  UNL1        0.0618
     23 H          -1.4143   -1.8184    1.4064 H       1  UNL1        0.0625
@<TRIPOS>BOND
     1     1     2   ar
     2     2     3   ar
     3     3     4   ar
     4     4     5   ar
     5     5     6   ar
     6     6     7   ar
     7     7     8   ar
     8     8     9    1
     9     9    10   ar
    10    10    11   ar
    11    11    12   ar
    12    12    13   ar
    13    13    14   ar
    14     8    15   ar
    15     6     1   ar
    16    15     1   ar
    17    14     9   ar
    18     2    16    1
    19     3    17    1
    20     4    18    1
    21    10    19    1
    22    11    20    1
    23    12    21    1
    24    13    22    1
    25    14    23    1
