@<TRIPOS>MOLECULE
*****
 36 40 0 0 0
SMALL
GASTEIGER

@<TRIPOS>ATOM
      1 N           1.6548   -0.3100    0.6284 N.ar    1  UNL1        0.0000
      2 C           1.1322   -0.9730    1.7631 C.ar    1  UNL1        0.0000
      3 C          -0.1668   -1.1502    1.9758 C.ar    1  UNL1        0.0000
      4 C          -1.2090   -0.6933    1.0843 C.ar    1  UNL1        0.0000
      5 C          -0.8611   -0.0188   -0.0847 C.ar    1  UNL1        0.0000
      6 C          -1.7822    0.4431   -0.9757 C.ar    1  UNL1        0.0000
      7 C          -3.1283    0.2135   -0.6738 C.ar    1  UNL1        0.0000
      8 C          -4.0633    0.6834   -1.5801 C.ar    1  UNL1        0.0000
      9 C          -5.3997    0.4740   -1.3133 C.ar    1  UNL1        0.0000
     10 C          -5.7821   -0.1882   -0.1688 C.ar    1  UNL1        0.0000
     11 C          -4.8467   -0.6560    0.7338 C.ar    1  UNL1        0.0000
     12 C          -3.5036   -0.4510    0.4753 C.ar    1  UNL1        0.0000
     13 C          -2.5431   -0.9083    1.3611 C.ar    1  UNL1        0.0000
     14 B           0.6357    0.2222   -0.3950 B       1  UNL1        0.0000
     15 C           1.1838    0.9542   -1.6504 C.ar    1  UNL1        0.0000
     16 C           2.4925    1.0828   -1.7762 C.ar    1  UNL1        0.0000
     17 C           3.4376    0.5615   -0.7778 C.ar    1  UNL1        0.0000
     18 C           3.0353   -0.1027    0.3685 C.ar    1  UNL1        0.0000
     19 C           3.9349   -0.5881    1.2996 C.ar    1  UNL1        0.0000
     20 C           5.3054   -0.4024    1.0774 C.ar    1  UNL1        0.0000
     21 C           5.6984    0.2560   -0.0595 C.ar    1  UNL1        0.0000
     22 C           4.7931    0.7353   -0.9801 C.ar    1  UNL1        0.0000
     23 H           1.7843   -1.3669    2.5127 H       1  UNL1        0.0000
     24 H          -0.5087   -1.6759    2.8813 H       1  UNL1        0.0000
     25 H          -1.4869    0.9646   -1.8774 H       1  UNL1        0.0000
     26 H          -3.7193    1.2001   -2.4694 H       1  UNL1        0.0000
     27 H          -6.1023    0.8577   -2.0485 H       1  UNL1        0.0000
     28 H          -6.8610   -0.3210   -0.0177 H       1  UNL1        0.0000
     29 H          -5.1666   -1.1770    1.6326 H       1  UNL1        0.0000
     30 H          -2.8735   -1.4247    2.2511 H       1  UNL1        0.0000
     31 H           0.4682    1.3285   -2.3700 H       1  UNL1        0.0000
     32 H           2.8902    1.5861   -2.6375 H       1  UNL1        0.0000
     33 H           3.6330   -1.1088    2.1993 H       1  UNL1        0.0000
     34 H           6.0339   -0.7637    1.7750 H       1  UNL1        0.0000
     35 H           6.7563    0.4328   -0.2903 H       1  UNL1        0.0000
     36 H           5.1345    1.2539   -1.8731 H       1  UNL1        0.0000
@<TRIPOS>BOND
     1     1     2   ar
     2     2     3   ar
     3     3     4   ar
     4     4     5   ar
     5     5     6   ar
     6     6     7   ar
     7     7     8   ar
     8     8     9   ar
     9     9    10   ar
    10    10    11   ar
    11     7    12   ar
    12    12    13   ar
    13     5    14   ar
    14    14    15   ar
    15    15    16   ar
    16    16    17   ar
    17    17    18   ar
    18    18    19   ar
    19    19    20   ar
    20    20    21   ar
    21    21    22   ar
    22    14     1   ar
    23    18     1   ar
    24    13     4   ar
    25    12    11   ar
    26    22    17   ar
    27     2    23    1
    28     3    24    1
    29     6    25    1
    30     8    26    1
    31     9    27    1
    32    10    28    1
    33    11    29    1
    34    13    30    1
    35    15    31    1
    36    16    32    1
    37    19    33    1
    38    20    34    1
    39    21    35    1
    40    22    36    1
