@<TRIPOS>MOLECULE
*****
 30 32 0 0 0
SMALL
GASTEIGER

@<TRIPOS>ATOM
      1 N           2.1590    2.9379    0.9197 N.am    1  UNL1       -0.3253
      2 C           2.4228    1.9232    0.0413 C.2     1  UNL1        0.2422
      3 O           3.4200    1.9314   -0.6641 O.2     1  UNL1       -0.2704
      4 C           1.4375    0.8162    0.0088 C.ar    1  UNL1        0.0477
      5 C           0.0858    1.1609   -0.0897 C.ar    1  UNL1       -0.0230
      6 C          -0.8579    0.1493   -0.1389 C.ar    1  UNL1        0.0725
      7 C          -2.3111    0.3962   -0.2501 C.ar    1  UNL1        0.0032
      8 C          -2.9192    1.5604    0.2417 C.ar    1  UNL1       -0.0344
      9 C          -4.2905    1.7249    0.1011 C.ar    1  UNL1        0.0282
     10 N          -5.0990    0.8229   -0.4877 N.ar    1  UNL1       -0.2632
     11 C          -4.5120   -0.2984   -0.9502 C.ar    1  UNL1        0.0282
     12 C          -3.1524   -0.5505   -0.8547 C.ar    1  UNL1       -0.0344
     13 N          -0.4889   -1.1542   -0.0999 N.ar    1  UNL1       -0.2467
     14 C           0.8086   -1.4881   -0.0139 C.ar    1  UNL1        0.0725
     15 C           1.1319   -2.8383    0.0241 C.ar    1  UNL1       -0.0343
     16 C           2.4533   -3.2806    0.1218 C.ar    1  UNL1       -0.0413
     17 C           3.4786   -2.3498    0.1838 C.ar    1  UNL1        0.0417
     18 CL          5.1094   -2.8774    0.3119 Cl      1  UNL1       -0.0835
     19 C           3.1849   -0.9893    0.1472 C.ar    1  UNL1       -0.0335
     20 C           1.8432   -0.5362    0.0441 C.ar    1  UNL1        0.0139
     21 H           1.4886    2.8423    1.6700 H       1  UNL1        0.1453
     22 H           2.8860    3.6352    1.0279 H       1  UNL1        0.1453
     23 H          -0.2054    2.2028   -0.1694 H       1  UNL1        0.0647
     24 H          -2.3534    2.3347    0.7473 H       1  UNL1        0.0639
     25 H          -4.7881    2.6153    0.4752 H       1  UNL1        0.0830
     26 H          -5.1813   -1.0160   -1.4161 H       1  UNL1        0.0830
     27 H          -2.7532   -1.4795   -1.2523 H       1  UNL1        0.0639
     28 H           0.3293   -3.5720   -0.0219 H       1  UNL1        0.0639
     29 H           2.6663   -4.3458    0.1490 H       1  UNL1        0.0633
     30 H           4.0071   -0.2778    0.1942 H       1  UNL1        0.0639
@<TRIPOS>BOND
     1     1     2   am
     2     2     3    2
     3     2     4    1
     4     4     5   ar
     5     5     6   ar
     6     6     7    1
     7     7     8   ar
     8     8     9   ar
     9     9    10   ar
    10    10    11   ar
    11    11    12   ar
    12     6    13   ar
    13    13    14   ar
    14    14    15   ar
    15    15    16   ar
    16    16    17   ar
    17    17    18    1
    18    17    19   ar
    19    19    20   ar
    20    20     4   ar
    21    12     7   ar
    22    20    14   ar
    23     1    21    1
    24     1    22    1
    25     5    23    1
    26     8    24    1
    27     9    25    1
    28    11    26    1
    29    12    27    1
    30    15    28    1
    31    16    29    1
    32    19    30    1
