@<TRIPOS>MOLECULE
*****
 31 32 0 0 0
SMALL
GASTEIGER

@<TRIPOS>ATOM
      1 N          -4.2161   -1.0753   -0.9108 N.am    1  UNL1       -0.3253
      2 C          -3.0907   -1.4671   -0.2397 C.2     1  UNL1        0.2434
      3 O          -2.6526   -2.6078   -0.3377 O.2     1  UNL1       -0.2704
      4 C          -2.3939   -0.4460    0.5819 C.ar    1  UNL1        0.0588
      5 C          -3.1202    0.5729    1.2150 C.ar    1  UNL1       -0.0478
      6 C          -2.4591    1.5142    2.0068 C.ar    1  UNL1       -0.0609
      7 C          -1.0768    1.4396    2.1748 C.ar    1  UNL1       -0.0599
      8 C          -0.3486    0.4234    1.5538 C.ar    1  UNL1       -0.0386
      9 C          -1.0015   -0.5273    0.7648 C.ar    1  UNL1        0.0601
     10 N          -0.2074   -1.5034    0.0715 N.pl3   1  UNL1       -0.2155
     11 S           0.3999   -1.0273   -1.4434 S.O2    1  UNL1        0.0724
     12 O           0.7712   -2.2330   -2.1519 O.2     1  UNL1       -0.1500
     13 O          -0.4919   -0.0500   -2.0325 O.2     1  UNL1       -0.1500
     14 C           1.9170   -0.2127   -0.9976 C.ar    1  UNL1        0.1087
     15 C           2.9869   -0.9804   -0.5206 C.ar    1  UNL1       -0.0324
     16 C           4.1815   -0.3486   -0.1747 C.ar    1  UNL1       -0.0246
     17 C           4.2945    1.0320   -0.3155 C.ar    1  UNL1        0.1235
     18 F           5.4421    1.6355    0.0194 F       1  UNL1       -0.2055
     19 C           3.2363    1.7968   -0.7995 C.ar    1  UNL1       -0.0246
     20 C           2.0375    1.1738   -1.1482 C.ar    1  UNL1       -0.0324
     21 H          -4.5639   -1.7403   -1.5916 H       1  UNL1        0.1453
     22 H          -4.3711   -0.0985   -1.1224 H       1  UNL1        0.1453
     23 H          -4.2014    0.6296    1.1191 H       1  UNL1        0.0626
     24 H          -3.0238    2.3018    2.5013 H       1  UNL1        0.0618
     25 H          -0.5643    2.1718    2.7950 H       1  UNL1        0.0618
     26 H           0.7269    0.3727    1.7020 H       1  UNL1        0.0637
     27 H          -0.6945   -2.4041   -0.0607 H       1  UNL1        0.1737
     28 H           2.8927   -2.0598   -0.4203 H       1  UNL1        0.0638
     29 H           5.0250   -0.9215    0.1984 H       1  UNL1        0.0647
     30 H           3.3553    2.8709   -0.9054 H       1  UNL1        0.0647
     31 H           1.2110    1.7681   -1.5314 H       1  UNL1        0.0638
@<TRIPOS>BOND
     1     1     2   am
     2     2     3    2
     3     2     4    1
     4     4     5   ar
     5     5     6   ar
     6     6     7   ar
     7     7     8   ar
     8     8     9   ar
     9     9    10    1
    10    10    11    1
    11    11    12    2
    12    11    13    2
    13    11    14    1
    14    14    15   ar
    15    15    16   ar
    16    16    17   ar
    17    17    18    1
    18    17    19   ar
    19    19    20   ar
    20     9     4   ar
    21    20    14   ar
    22     1    21    1
    23     1    22    1
    24     5    23    1
    25     6    24    1
    26     7    25    1
    27     8    26    1
    28    10    27    1
    29    15    28    1
    30    16    29    1
    31    19    30    1
    32    20    31    1
