@<TRIPOS>MOLECULE
*****
 38 40 0 0 0
SMALL
GASTEIGER

@<TRIPOS>ATOM
      1 N          -2.0670    1.9950   -1.2875 N.am    1  UNL1       -0.3252
      2 C          -3.0517    1.9519   -0.3431 C.2     1  UNL1        0.2451
      3 O          -3.4719    2.9874    0.1645 O.2     1  UNL1       -0.2703
      4 C          -3.6241    0.6219    0.0269 C.ar    1  UNL1        0.0780
      5 C          -4.7619    0.6273    0.8497 C.ar    1  UNL1       -0.0461
      6 C          -5.3944   -0.5635    1.2189 C.ar    1  UNL1       -0.0608
      7 C          -4.9019   -1.7789    0.7574 C.ar    1  UNL1       -0.0583
      8 C          -3.7657   -1.8056   -0.0530 C.ar    1  UNL1       -0.0192
      9 C          -3.1135   -0.6142   -0.3928 C.ar    1  UNL1        0.1328
     10 O          -2.0094   -0.7230   -1.2002 O.3     1  UNL1       -0.4874
     11 C          -0.8231   -0.9137   -0.4038 C.3     1  UNL1        0.1292
     12 C           0.3486   -1.1858   -1.3480 C.3     1  UNL1        0.1675
     13 C           1.6455   -1.4605   -0.6233 C.3     1  UNL1        0.0362
     14 C           2.2436   -0.0972   -0.6962 C.2     1  UNL1        0.0909
     15 C           3.4215    0.2949    0.1132 C.ar    1  UNL1       -0.0005
     16 C           3.9577    1.5793   -0.0512 C.ar    1  UNL1       -0.0528
     17 C           5.0708    1.9792    0.6913 C.ar    1  UNL1       -0.0611
     18 C           5.6519    1.1000    1.6031 C.ar    1  UNL1       -0.0617
     19 C           5.1231   -0.1800    1.7720 C.ar    1  UNL1       -0.0611
     20 C           4.0130   -0.5864    1.0261 C.ar    1  UNL1       -0.0528
     21 N           1.6718    0.6948   -1.5466 N.2     1  UNL1       -0.0885
     22 O           0.6067   -0.0183   -2.1422 O.2     1  UNL1       -0.3864
     23 H          -1.8007    1.1769   -1.8230 H       1  UNL1        0.1453
     24 H          -1.7228    2.8970   -1.5908 H       1  UNL1        0.1453
     25 H          -5.1750    1.5722    1.2040 H       1  UNL1        0.0626
     26 H          -6.2778   -0.5369    1.8505 H       1  UNL1        0.0618
     27 H          -5.4059   -2.7035    1.0227 H       1  UNL1        0.0619
     28 H          -3.3931   -2.7555   -0.4273 H       1  UNL1        0.0654
     29 H          -0.6426   -0.0094    0.1915 H       1  UNL1        0.0735
     30 H          -0.9520   -1.7706    0.2679 H       1  UNL1        0.0735
     31 H           0.0929   -2.0053   -2.0271 H       1  UNL1        0.0798
     32 H           1.5021   -1.8298    0.3933 H       1  UNL1        0.0367
     33 H           2.2777   -2.1507   -1.1899 H       1  UNL1        0.0367
     34 H           3.5146    2.2762   -0.7608 H       1  UNL1        0.0624
     35 H           5.4843    2.9757    0.5534 H       1  UNL1        0.0618
     36 H           6.5171    1.4135    2.1827 H       1  UNL1        0.0618
     37 H           5.5795   -0.8630    2.4853 H       1  UNL1        0.0618
     38 H           3.6320   -1.5914    1.1805 H       1  UNL1        0.0624
@<TRIPOS>BOND
     1     1     2   am
     2     2     3    2
     3     2     4    1
     4     4     5   ar
     5     5     6   ar
     6     6     7   ar
     7     7     8   ar
     8     8     9   ar
     9     9    10    1
    10    10    11    1
    11    11    12    1
    12    12    13    1
    13    13    14    1
    14    14    15    1
    15    15    16   ar
    16    16    17   ar
    17    17    18   ar
    18    18    19   ar
    19    19    20   ar
    20    14    21    2
    21    21    22    1
    22     9     4   ar
    23    22    12    1
    24    20    15   ar
    25     1    23    1
    26     1    24    1
    27     5    25    1
    28     6    26    1
    29     7    27    1
    30     8    28    1
    31    11    29    1
    32    11    30    1
    33    12    31    1
    34    13    32    1
    35    13    33    1
    36    16    34    1
    37    17    35    1
    38    18    36    1
    39    19    37    1
    40    20    38    1
