@<TRIPOS>MOLECULE
*****
 47 54 0 0 0
SMALL
GASTEIGER

@<TRIPOS>ATOM
      1 SI         -5.6964   -2.0797   -1.1189 Si      1  UNL1        0.0000
      2 C          -7.6136   -1.8973   -1.1400 C.2     1  UNL1        0.0000
      3 C          -7.9949   -0.6804   -0.6955 C.2     1  UNL1        0.0000
      4 C          -6.9208    0.1856   -0.3186 C.ar    1  UNL1        0.0000
      5 C          -6.9389    1.4633    0.1652 C.ar    1  UNL1        0.0000
      6 S          -5.3349    2.0252    0.4514 S.2     1  UNL1        0.0000
      7 C          -4.5920    0.5448   -0.0870 C.ar    1  UNL1        0.0000
      8 C          -5.5979   -0.3142   -0.4484 C.ar    1  UNL1        0.0000
      9 C          -3.1275    0.3678   -0.0891 C.ar    1  UNL1        0.0000
     10 C          -2.2197    1.4118    0.0832 C.ar    1  UNL1        0.0000
     11 C          -0.8341    1.1296    0.0641 C.ar    1  UNL1        0.0000
     12 C           0.2613    2.0334    0.1740 C.ar    1  UNL1        0.0000
     13 C           0.0942    3.3992    0.2794 C.ar    1  UNL1        0.0000
     14 S           1.5936    4.2478    0.2623 S.2     1  UNL1        0.0000
     15 C           2.4969    2.7914    0.1094 C.ar    1  UNL1        0.0000
     16 C           1.6560    1.7184    0.1577 C.ar    1  UNL1        0.0000
     17 C           2.0172    0.3318    0.0659 C.ar    1  UNL1        0.0000
     18 C           0.9640   -0.5397   -0.1411 C.ar    1  UNL1        0.0000
     19 O           1.4846   -1.7766   -0.3865 O.2     1  UNL1        0.0000
     20 C           2.8398   -1.6718   -0.2878 C.ar    1  UNL1        0.0000
     21 C           3.7075   -2.7297   -0.5420 C.ar    1  UNL1        0.0000
     22 C           5.0680   -2.4876   -0.3640 C.ar    1  UNL1        0.0000
     23 C           5.5326   -1.2648    0.1337 C.ar    1  UNL1        0.0000
     24 C           6.9026   -1.0886    0.3823 C.ar    1  UNL1        0.0000
     25 C           7.3816    0.0843    0.9644 C.ar    1  UNL1        0.0000
     26 C           6.4930    1.0869    1.3315 C.ar    1  UNL1        0.0000
     27 C           5.1275    0.9376    1.0790 C.ar    1  UNL1        0.0000
     28 C           4.6224   -0.2083    0.4283 C.ar    1  UNL1        0.0000
     29 C           3.2351   -0.3883    0.1098 C.ar    1  UNL1        0.0000
     30 C          -0.4148   -0.2047   -0.1290 C.ar    1  UNL1        0.0000
     31 C          -1.3962   -1.1763   -0.3044 C.ar    1  UNL1        0.0000
     32 N          -2.7258   -0.9155   -0.2892 N.ar    1  UNL1        0.0000
     33 H          -5.2100   -2.2515   -2.5123 H       1  UNL1        0.0000
     34 H          -5.3265   -3.1518   -0.1594 H       1  UNL1        0.0000
     35 H          -8.2375   -2.7092   -1.4758 H       1  UNL1        0.0000
     36 H          -9.0320   -0.3737   -0.6262 H       1  UNL1        0.0000
     37 H          -7.7867    2.1014    0.3709 H       1  UNL1        0.0000
     38 H          -2.5632    2.4296    0.2192 H       1  UNL1        0.0000
     39 H          -0.8191    3.9747    0.3346 H       1  UNL1        0.0000
     40 H           3.5631    2.8506   -0.0379 H       1  UNL1        0.0000
     41 H           3.3370   -3.6931   -0.8724 H       1  UNL1        0.0000
     42 H           5.7668   -3.2958   -0.5743 H       1  UNL1        0.0000
     43 H           7.6129   -1.8779    0.1434 H       1  UNL1        0.0000
     44 H           8.4446    0.1990    1.1607 H       1  UNL1        0.0000
     45 H           6.8580    1.9808    1.8313 H       1  UNL1        0.0000
     46 H           4.4614    1.7026    1.4586 H       1  UNL1        0.0000
     47 H          -1.1391   -2.2211   -0.4610 H       1  UNL1        0.0000
@<TRIPOS>BOND
     1     1     2    1
     2     2     3    2
     3     3     4    1
     4     4     5   ar
     5     5     6   ar
     6     6     7   ar
     7     7     8   ar
     8     7     9    1
     9     9    10   ar
    10    10    11   ar
    11    11    12   ar
    12    12    13   ar
    13    13    14   ar
    14    14    15   ar
    15    15    16   ar
    16    16    17   ar
    17    17    18   ar
    18    18    19   ar
    19    19    20   ar
    20    20    21   ar
    21    21    22   ar
    22    22    23   ar
    23    23    24   ar
    24    24    25   ar
    25    25    26   ar
    26    26    27   ar
    27    27    28   ar
    28    28    29   ar
    29    18    30   ar
    30    30    31   ar
    31    31    32   ar
    32     8     1    1
    33    32     9   ar
    34     8     4   ar
    35    30    11   ar
    36    16    12   ar
    37    29    17   ar
    38    29    20   ar
    39    28    23   ar
    40     1    33    1
    41     1    34    1
    42     2    35    1
    43     3    36    1
    44     5    37    1
    45    10    38    1
    46    13    39    1
    47    15    40    1
    48    21    41    1
    49    22    42    1
    50    24    43    1
    51    25    44    1
    52    26    45    1
    53    27    46    1
    54    31    47    1
