@<TRIPOS>MOLECULE
*****
 34 35 0 0 0
SMALL
GASTEIGER

@<TRIPOS>ATOM
      1 N          -4.9119    1.0176   -0.5432 N.am    1  UNL1       -0.3291
      2 C          -3.9632    0.1065   -0.9084 C.2     1  UNL1        0.2149
      3 O          -4.2520   -0.8279   -1.6457 O.2     1  UNL1       -0.2757
      4 C          -2.5809    0.3443   -0.3276 C.3     1  UNL1        0.0497
      5 C          -2.5992    0.1842    1.1980 C.3     1  UNL1       -0.0395
      6 C          -1.1924    0.2981    1.7802 C.3     1  UNL1       -0.0378
      7 C          -0.2252   -0.6636    1.0962 C.3     1  UNL1        0.0205
      8 N          -0.2168   -0.3821   -0.3673 N.3     1  UNL1       -0.1759
      9 S           1.0315   -1.1764   -1.2391 S.O2    1  UNL1        0.0609
     10 O           0.9371   -0.7880   -2.6294 O.2     1  UNL1       -0.1528
     11 O           1.0216   -2.5671   -0.8370 O.2     1  UNL1       -0.1528
     12 C           2.5003   -0.4135   -0.5912 C.ar    1  UNL1        0.1055
     13 C           3.4418   -1.1774    0.1049 C.ar    1  UNL1       -0.0343
     14 C           4.5886   -0.5592    0.6070 C.ar    1  UNL1       -0.0459
     15 C           4.7846    0.8086    0.4051 C.ar    1  UNL1        0.0180
     16 BR          6.3385    1.6411    1.0888 Br      1  UNL1       -0.0503
     17 C           3.8472    1.5680   -0.2974 C.ar    1  UNL1       -0.0459
     18 C           2.6990    0.9554   -0.8014 C.ar    1  UNL1       -0.0343
     19 C          -1.5731   -0.6204   -0.9611 C.3     1  UNL1        0.0316
     20 H          -4.6692    1.9179   -0.1534 H       1  UNL1        0.1449
     21 H          -5.8180    0.9263   -0.9866 H       1  UNL1        0.1449
     22 H          -2.2859    1.3727   -0.5767 H       1  UNL1        0.0407
     23 H          -3.2430    0.9431    1.6580 H       1  UNL1        0.0273
     24 H          -3.0285   -0.7902    1.4658 H       1  UNL1        0.0273
     25 H          -1.2207    0.0926    2.8560 H       1  UNL1        0.0278
     26 H          -0.8339    1.3279    1.6570 H       1  UNL1        0.0278
     27 H          -0.5243   -1.7014    1.2830 H       1  UNL1        0.0444
     28 H           0.7696   -0.5095    1.5236 H       1  UNL1        0.0444
     29 H           3.2933   -2.2444    0.2564 H       1  UNL1        0.0637
     30 H           5.3234   -1.1504    1.1483 H       1  UNL1        0.0629
     31 H           4.0043    2.6313   -0.4605 H       1  UNL1        0.0629
     32 H           1.9674    1.5393   -1.3562 H       1  UNL1        0.0637
     33 H          -1.8673   -1.6658   -0.8034 H       1  UNL1        0.0451
     34 H          -1.5427   -0.4376   -2.0413 H       1  UNL1        0.0451
@<TRIPOS>BOND
     1     1     2   am
     2     2     3    2
     3     2     4    1
     4     4     5    1
     5     5     6    1
     6     6     7    1
     7     7     8    1
     8     8     9    1
     9     9    10    2
    10     9    11    2
    11     9    12    1
    12    12    13   ar
    13    13    14   ar
    14    14    15   ar
    15    15    16    1
    16    15    17   ar
    17    17    18   ar
    18     8    19    1
    19    19     4    1
    20    18    12   ar
    21     1    20    1
    22     1    21    1
    23     4    22    1
    24     5    23    1
    25     5    24    1
    26     6    25    1
    27     6    26    1
    28     7    27    1
    29     7    28    1
    30    13    29    1
    31    14    30    1
    32    17    31    1
    33    18    32    1
    34    19    33    1
    35    19    34    1
