@<TRIPOS>MOLECULE
*****
 24 25 0 0 0
SMALL
GASTEIGER

@<TRIPOS>ATOM
      1 N          -2.9272    1.2581   -1.8478 N.am    1  UNL1       -0.3253
      2 C          -1.7810    0.8125   -1.2571 C.2     1  UNL1        0.2439
      3 O          -0.6902    1.2423   -1.6263 O.2     1  UNL1       -0.2703
      4 C          -1.9287   -0.1726   -0.1854 C.ar    1  UNL1        0.0649
      5 C          -3.1471   -0.7647    0.3048 C.ar    1  UNL1       -0.0407
      6 C          -2.9301   -1.6594    1.3282 C.ar    1  UNL1       -0.0218
      7 S          -1.2755   -1.7973    1.7054 S.2     1  UNL1       -0.0812
      8 C          -0.8342   -0.6729    0.5126 C.ar    1  UNL1        0.0839
      9 N           0.4905   -0.3236    0.2956 N.am    1  UNL1       -0.2792
     10 C           1.6074   -0.7845    0.9571 C.2     1  UNL1        0.2207
     11 O           1.6542   -1.5929    1.8729 O.2     1  UNL1       -0.2752
     12 C           2.9103   -0.2132    0.4821 C.3     1  UNL1        0.0359
     13 C           3.0575    1.2199    0.0257 C.3     1  UNL1       -0.0412
     14 C           3.1849    0.1017   -0.9702 C.3     1  UNL1       -0.0412
     15 H          -3.8534    0.9893   -1.5573 H       1  UNL1        0.1453
     16 H          -2.8331    1.9608   -2.5685 H       1  UNL1        0.1453
     17 H          -4.1409   -0.5551   -0.0680 H       1  UNL1        0.0631
     18 H          -3.6626   -2.2400    1.8723 H       1  UNL1        0.0694
     19 H           0.6265    0.3552   -0.4497 H       1  UNL1        0.1553
     20 H           3.7534   -0.6151    1.0411 H       1  UNL1        0.0394
     21 H           3.9605    1.7470    0.3159 H       1  UNL1        0.0273
     22 H           2.1848    1.8602   -0.0238 H       1  UNL1        0.0273
     23 H           4.1740   -0.1272   -1.3532 H       1  UNL1        0.0273
     24 H           2.4001   -0.0285   -1.7058 H       1  UNL1        0.0273
@<TRIPOS>BOND
     1     1     2   am
     2     2     3    2
     3     2     4    1
     4     4     5   ar
     5     5     6   ar
     6     6     7   ar
     7     7     8   ar
     8     8     9    1
     9     9    10   am
    10    10    11    2
    11    10    12    1
    12    12    13    1
    13    13    14    1
    14     8     4   ar
    15    14    12    1
    16     1    15    1
    17     1    16    1
    18     5    17    1
    19     6    18    1
    20     9    19    1
    21    12    20    1
    22    13    21    1
    23    13    22    1
    24    14    23    1
    25    14    24    1
