@<TRIPOS>MOLECULE
*****
 34 36 0 0 0
SMALL
GASTEIGER

@<TRIPOS>ATOM
      1 N           4.4145    1.6293   -1.9666 N.am    1  UNL1       -0.3286
      2 C           4.9705    1.2887   -0.7653 C.2     1  UNL1        0.2207
      3 O           5.4735    2.1572   -0.0560 O.2     1  UNL1       -0.2751
      4 C           5.0426   -0.1918   -0.4300 C.3     1  UNL1        0.0760
      5 S           3.6135   -1.1480   -1.0463 S.3     1  UNL1       -0.0958
      6 C           2.3487   -0.5991    0.0577 C.ar    1  UNL1        0.1113
      7 N           2.5554    0.4573    0.8712 N.ar    1  UNL1       -0.2284
      8 C           1.5507    0.8388    1.6830 C.ar    1  UNL1        0.1196
      9 N           0.3274    0.2933    1.7934 N.ar    1  UNL1       -0.2162
     10 C           0.1719   -0.7476    0.9551 C.ar    1  UNL1        0.1628
     11 C           1.1179   -1.2483    0.0775 C.ar    1  UNL1        0.0704
     12 C           0.4754   -2.3349   -0.5510 C.ar    1  UNL1        0.0613
     13 N          -0.7753   -2.5244   -0.1154 N.ar    1  UNL1       -0.1768
     14 N          -0.9463   -1.5228    0.7864 N.ar    1  UNL1       -0.2419
     15 C          -2.2056   -1.3816    1.4981 C.3     1  UNL1        0.0688
     16 C          -3.1278   -0.4128    0.8013 C.ar    1  UNL1       -0.0261
     17 C          -3.9124   -0.8327   -0.2831 C.ar    1  UNL1       -0.0568
     18 C          -4.7576    0.0659   -0.9354 C.ar    1  UNL1       -0.0614
     19 C          -4.8235    1.3928   -0.5150 C.ar    1  UNL1       -0.0617
     20 C          -4.0414    1.8242    0.5548 C.ar    1  UNL1       -0.0614
     21 C          -3.1953    0.9276    1.2090 C.ar    1  UNL1       -0.0568
     22 H           3.7542    0.9960   -2.3998 H       1  UNL1        0.1450
     23 H           4.2834    2.6199   -2.1252 H       1  UNL1        0.1450
     24 H           5.1355   -0.3178    0.6533 H       1  UNL1        0.0475
     25 H           5.9477   -0.5929   -0.8972 H       1  UNL1        0.0475
     26 H           1.7558    1.6913    2.3248 H       1  UNL1        0.1048
     27 H           0.8705   -3.0030   -1.3061 H       1  UNL1        0.0855
     28 H          -1.9840   -1.0563    2.5211 H       1  UNL1        0.0559
     29 H          -2.6676   -2.3733    1.5726 H       1  UNL1        0.0559
     30 H          -3.8609   -1.8634   -0.6309 H       1  UNL1        0.0621
     31 H          -5.3609   -0.2691   -1.7753 H       1  UNL1        0.0618
     32 H          -5.4805    2.0924   -1.0251 H       1  UNL1        0.0618
     33 H          -4.0873    2.8612    0.8774 H       1  UNL1        0.0618
     34 H          -2.5827    1.2840    2.0353 H       1  UNL1        0.0621
@<TRIPOS>BOND
     1     1     2   am
     2     2     3    2
     3     2     4    1
     4     4     5    1
     5     5     6    1
     6     6     7   ar
     7     7     8   ar
     8     8     9   ar
     9     9    10   ar
    10    10    11   ar
    11    11    12   ar
    12    12    13   ar
    13    13    14   ar
    14    14    15    1
    15    15    16    1
    16    16    17   ar
    17    17    18   ar
    18    18    19   ar
    19    19    20   ar
    20    20    21   ar
    21    11     6   ar
    22    21    16   ar
    23    14    10   ar
    24     1    22    1
    25     1    23    1
    26     4    24    1
    27     4    25    1
    28     8    26    1
    29    12    27    1
    30    15    28    1
    31    15    29    1
    32    17    30    1
    33    18    31    1
    34    19    32    1
    35    20    33    1
    36    21    34    1
