@<TRIPOS>MOLECULE
*****
 31 33 0 0 0
SMALL
GASTEIGER

@<TRIPOS>ATOM
      1 N          -1.0148   -2.3620    0.7540 N.pl3   1  UNL1       -0.3432
      2 C          -1.1240   -1.5312   -0.3158 C.ar    1  UNL1        0.1178
      3 C          -0.5224   -0.3073   -0.5474 C.ar    1  UNL1        0.0827
      4 C           0.3721    0.3483    0.3532 C.1     1  UNL1       -0.0563
      5 C           1.1253    0.9069    1.1036 C.1     1  UNL1       -0.0609
      6 C           2.0240    1.5782    1.9904 C.ar    1  UNL1        0.0253
      7 C           2.9939    2.4434    1.4788 C.ar    1  UNL1       -0.0463
      8 C           3.8722    3.0985    2.3443 C.ar    1  UNL1       -0.0606
      9 C           3.7812    2.8897    3.7204 C.ar    1  UNL1       -0.0617
     10 C           2.8124    2.0271    4.2331 C.ar    1  UNL1       -0.0606
     11 C           1.9332    1.3712    3.3689 C.ar    1  UNL1       -0.0463
     12 C          -0.9383    0.1548   -1.8196 C.ar    1  UNL1        0.0942
     13 C          -0.5479    1.3695   -2.4635 C.1     1  UNL1        0.1026
     14 N          -0.2349    2.3502   -3.0002 N.1     1  UNL1       -0.1908
     15 C          -1.8002   -0.7886   -2.3440 C.ar    1  UNL1        0.0664
     16 C          -2.5372   -0.9009   -3.5628 C.ar    1  UNL1       -0.0365
     17 C          -3.3279   -1.9708   -3.7683 C.ar    1  UNL1       -0.0584
     18 C          -3.4572   -3.0224   -2.7764 C.ar    1  UNL1       -0.0451
     19 C          -2.7617   -2.9260   -1.6315 C.ar    1  UNL1        0.0115
     20 N          -1.9301   -1.8213   -1.4125 N.ar    1  UNL1       -0.3027
     21 H          -1.2336   -3.3511    0.6743 H       1  UNL1        0.1437
     22 H          -0.2720   -2.1894    1.4301 H       1  UNL1        0.1437
     23 H           3.0702    2.6144    0.4074 H       1  UNL1        0.0630
     24 H           4.6253    3.7727    1.9445 H       1  UNL1        0.0618
     25 H           4.4646    3.4013    4.3935 H       1  UNL1        0.0618
     26 H           2.7403    1.8668    5.3057 H       1  UNL1        0.0618
     27 H           1.1791    0.7033    3.7774 H       1  UNL1        0.0630
     28 H          -2.4575   -0.1226   -4.3170 H       1  UNL1        0.0639
     29 H          -3.8958   -2.0706   -4.6887 H       1  UNL1        0.0619
     30 H          -4.1154   -3.8599   -2.9795 H       1  UNL1        0.0632
     31 H          -2.8227   -3.6723   -0.8518 H       1  UNL1        0.0813
@<TRIPOS>BOND
     1     1     2    1
     2     2     3   ar
     3     3     4    1
     4     4     5    3
     5     5     6    1
     6     6     7   ar
     7     7     8   ar
     8     8     9   ar
     9     9    10   ar
    10    10    11   ar
    11     3    12   ar
    12    12    13    1
    13    13    14    3
    14    12    15   ar
    15    15    16   ar
    16    16    17   ar
    17    17    18   ar
    18    18    19   ar
    19    19    20   ar
    20    20     2   ar
    21    11     6   ar
    22    20    15   ar
    23     1    21    1
    24     1    22    1
    25     7    23    1
    26     8    24    1
    27     9    25    1
    28    10    26    1
    29    11    27    1
    30    16    28    1
    31    17    29    1
    32    18    30    1
    33    19    31    1
