@<TRIPOS>MOLECULE
*****
 35 38 0 0 0
SMALL
GASTEIGER

@<TRIPOS>ATOM
      1 N           0.5975   -1.0240    2.1405 N.pl3   1  UNL1       -0.3437
      2 C           1.1218   -0.4629    1.0204 C.ar    1  UNL1        0.1099
      3 C           0.5481    0.4362    0.1349 C.ar    1  UNL1        0.0402
      4 C          -0.8015    0.9619    0.2891 C.ar    1  UNL1       -0.0056
      5 C          -1.9411    0.2579   -0.1887 C.ar    1  UNL1       -0.0100
      6 C          -1.8816   -0.9956   -0.8454 C.ar    1  UNL1       -0.0534
      7 C          -3.0341   -1.6434   -1.2946 C.ar    1  UNL1       -0.0611
      8 C          -4.2773   -1.0566   -1.1004 C.ar    1  UNL1       -0.0612
      9 C          -4.3682    0.1774   -0.4579 C.ar    1  UNL1       -0.0540
     10 C          -3.2186    0.8425   -0.0001 C.ar    1  UNL1       -0.0173
     11 C          -3.3316    2.0859    0.6423 C.ar    1  UNL1       -0.0540
     12 C          -2.2039    2.7622    1.1027 C.ar    1  UNL1       -0.0606
     13 C          -0.9431    2.2032    0.9272 C.ar    1  UNL1       -0.0533
     14 C           1.5009    0.7103   -0.8826 C.ar    1  UNL1        0.0865
     15 C           1.3352    1.5813   -2.0046 C.1     1  UNL1        0.1020
     16 N           1.2244    2.2858   -2.9207 N.1     1  UNL1       -0.1908
     17 C           2.6367   -0.0228   -0.6010 C.ar    1  UNL1        0.0657
     18 C           3.9086   -0.1756   -1.2338 C.ar    1  UNL1       -0.0365
     19 C           4.8383   -0.9758   -0.6792 C.ar    1  UNL1       -0.0584
     20 C           4.5847   -1.6919    0.5575 C.ar    1  UNL1       -0.0451
     21 C           3.3890   -1.5569    1.1538 C.ar    1  UNL1        0.0115
     22 N           2.4130   -0.7338    0.5795 N.ar    1  UNL1       -0.3032
     23 H          -0.4058   -0.9338    2.3019 H       1  UNL1        0.1437
     24 H           0.9644   -1.8945    2.5137 H       1  UNL1        0.1437
     25 H          -0.9245   -1.4842   -1.0156 H       1  UNL1        0.0624
     26 H          -2.9559   -2.6035   -1.7978 H       1  UNL1        0.0618
     27 H          -5.1771   -1.5552   -1.4508 H       1  UNL1        0.0618
     28 H          -5.3519    0.6214   -0.3189 H       1  UNL1        0.0624
     29 H          -4.3088    2.5422    0.7878 H       1  UNL1        0.0624
     30 H          -2.3092    3.7246    1.5965 H       1  UNL1        0.0618
     31 H          -0.0685    2.7364    1.2940 H       1  UNL1        0.0624
     32 H           4.1197    0.3550   -2.1582 H       1  UNL1        0.0639
     33 H           5.8103   -1.1016   -1.1469 H       1  UNL1        0.0619
     34 H           5.3673   -2.3156    0.9750 H       1  UNL1        0.0632
     35 H           3.1431   -2.0567    2.0802 H       1  UNL1        0.0813
@<TRIPOS>BOND
     1     1     2    1
     2     2     3   ar
     3     3     4    1
     4     4     5   ar
     5     5     6   ar
     6     6     7   ar
     7     7     8   ar
     8     8     9   ar
     9     5    10   ar
    10    10    11   ar
    11    11    12   ar
    12    12    13   ar
    13     3    14   ar
    14    14    15    1
    15    15    16    3
    16    14    17   ar
    17    17    18   ar
    18    18    19   ar
    19    19    20   ar
    20    20    21   ar
    21    21    22   ar
    22    22     2   ar
    23    13     4   ar
    24    10     9   ar
    25    22    17   ar
    26     1    23    1
    27     1    24    1
    28     6    25    1
    29     7    26    1
    30     8    27    1
    31     9    28    1
    32    11    29    1
    33    12    30    1
    34    13    31    1
    35    18    32    1
    36    19    33    1
    37    20    34    1
    38    21    35    1
