@<TRIPOS>MOLECULE
*****
 29 31 0 0 0
SMALL
GASTEIGER

@<TRIPOS>ATOM
      1 N           0.7033    1.6039    1.5422 N.pl3   1  UNL1       -0.3437
      2 C           0.7383    0.5274    0.7111 C.ar    1  UNL1        0.1100
      3 C          -0.2729   -0.0324   -0.0572 C.ar    1  UNL1        0.0424
      4 C          -1.6372    0.4712   -0.0826 C.ar    1  UNL1        0.0218
      5 C          -2.2049    0.9427   -1.2702 C.ar    1  UNL1        0.1312
      6 F          -1.4909    0.9605   -2.4062 F       1  UNL1       -0.2049
      7 C          -3.5149    1.4152   -1.3018 C.ar    1  UNL1       -0.0258
      8 C          -4.2771    1.4201   -0.1343 C.ar    1  UNL1       -0.0590
      9 C          -3.7248    0.9529    1.0590 C.ar    1  UNL1       -0.0610
     10 C          -2.4100    0.4791    1.0864 C.ar    1  UNL1       -0.0511
     11 C           0.2935   -1.1192   -0.7821 C.ar    1  UNL1        0.0865
     12 C          -0.3766   -1.9898   -1.6988 C.1     1  UNL1        0.1020
     13 N          -0.9082   -2.7134   -2.4350 N.1     1  UNL1       -0.1908
     14 C           1.6251   -1.2135   -0.4296 C.ar    1  UNL1        0.0657
     15 C           2.6969   -2.0823   -0.8016 C.ar    1  UNL1       -0.0365
     16 C           3.9109   -1.9219   -0.2427 C.ar    1  UNL1       -0.0584
     17 C           4.1639   -0.8838    0.7393 C.ar    1  UNL1       -0.0451
     18 C           3.1620   -0.0598    1.0870 C.ar    1  UNL1        0.0115
     19 N           1.8982   -0.2137    0.5038 N.ar    1  UNL1       -0.3032
     20 H           1.5582    2.1103    1.7575 H       1  UNL1        0.1437
     21 H          -0.0909    2.2388    1.4698 H       1  UNL1        0.1437
     22 H          -3.9313    1.7740   -2.2379 H       1  UNL1        0.0646
     23 H          -5.3013    1.7846   -0.1549 H       1  UNL1        0.0618
     24 H          -4.3197    0.9521    1.9696 H       1  UNL1        0.0618
     25 H          -1.9931    0.1115    2.0223 H       1  UNL1        0.0625
     26 H           2.5270   -2.8676   -1.5331 H       1  UNL1        0.0639
     27 H           4.7357   -2.5741   -0.5144 H       1  UNL1        0.0619
     28 H           5.1541   -0.7989    1.1729 H       1  UNL1        0.0632
     29 H           3.2863    0.7263    1.8184 H       1  UNL1        0.0813
@<TRIPOS>BOND
     1     1     2    1
     2     2     3   ar
     3     3     4    1
     4     4     5   ar
     5     5     6    1
     6     5     7   ar
     7     7     8   ar
     8     8     9   ar
     9     9    10   ar
    10     3    11   ar
    11    11    12    1
    12    12    13    3
    13    11    14   ar
    14    14    15   ar
    15    15    16   ar
    16    16    17   ar
    17    17    18   ar
    18    18    19   ar
    19    19     2   ar
    20    10     4   ar
    21    19    14   ar
    22     1    20    1
    23     1    21    1
    24     7    22    1
    25     8    23    1
    26     9    24    1
    27    10    25    1
    28    15    26    1
    29    16    27    1
    30    17    28    1
    31    18    29    1
