@<TRIPOS>MOLECULE
*****
 30 32 0 0 0
SMALL
GASTEIGER

@<TRIPOS>ATOM
      1 N          -0.2808   -2.3589   -0.2238 N.pl3   1  UNL1       -0.3437
      2 C          -0.5906   -1.0361   -0.3154 C.ar    1  UNL1        0.1100
      3 C           0.0932    0.0704    0.1699 C.ar    1  UNL1        0.0431
      4 C           1.3320   -0.0146    0.9341 C.ar    1  UNL1        0.0281
      5 C           2.5131    0.5987    0.4927 C.ar    1  UNL1        0.1247
      6 O           2.5263    1.2675   -0.7017 O.3     1  UNL1       -0.5062
      7 C           3.6823    0.5253    1.2524 C.ar    1  UNL1       -0.0196
      8 C           3.6788   -0.1649    2.4652 C.ar    1  UNL1       -0.0583
      9 C           2.5116   -0.7785    2.9171 C.ar    1  UNL1       -0.0610
     10 C           1.3431   -0.7027    2.1563 C.ar    1  UNL1       -0.0504
     11 C          -0.6284    1.2290   -0.2368 C.ar    1  UNL1        0.0866
     12 C          -0.2936    2.5938    0.0334 C.1     1  UNL1        0.1020
     13 N          -0.0488    3.7091    0.2476 N.1     1  UNL1       -0.1908
     14 C          -1.7419    0.8098   -0.9376 C.ar    1  UNL1        0.0657
     15 C          -2.8287    1.4796   -1.5794 C.ar    1  UNL1       -0.0365
     16 C          -3.7983    0.7603   -2.1748 C.ar    1  UNL1       -0.0584
     17 C          -3.7727   -0.6907   -2.1804 C.ar    1  UNL1       -0.0451
     18 C          -2.7493   -1.3251   -1.5854 C.ar    1  UNL1        0.0115
     19 N          -1.7314   -0.5844   -0.9718 N.ar    1  UNL1       -0.3032
     20 H          -0.6319   -3.0070   -0.9236 H       1  UNL1        0.1437
     21 H           0.6749   -2.5947    0.0427 H       1  UNL1        0.1437
     22 H           3.3669    1.7460   -0.7868 H       1  UNL1        0.2922
     23 H           4.6014    0.9946    0.9150 H       1  UNL1        0.0654
     24 H           4.5869   -0.2227    3.0603 H       1  UNL1        0.0619
     25 H           2.5076   -1.3120    3.8643 H       1  UNL1        0.0618
     26 H           0.4357   -1.1782    2.5242 H       1  UNL1        0.0625
     27 H          -2.8667    2.5654   -1.5831 H       1  UNL1        0.0639
     28 H          -4.6311    1.2544   -2.6662 H       1  UNL1        0.0619
     29 H          -4.5815   -1.2302   -2.6604 H       1  UNL1        0.0632
     30 H          -2.6783   -2.4030   -1.5480 H       1  UNL1        0.0813
@<TRIPOS>BOND
     1     1     2    1
     2     2     3   ar
     3     3     4    1
     4     4     5   ar
     5     5     6    1
     6     5     7   ar
     7     7     8   ar
     8     8     9   ar
     9     9    10   ar
    10     3    11   ar
    11    11    12    1
    12    12    13    3
    13    11    14   ar
    14    14    15   ar
    15    15    16   ar
    16    16    17   ar
    17    17    18   ar
    18    18    19   ar
    19    19     2   ar
    20    10     4   ar
    21    19    14   ar
    22     1    20    1
    23     1    21    1
    24     6    22    1
    25     7    23    1
    26     8    24    1
    27     9    25    1
    28    10    26    1
    29    15    27    1
    30    16    28    1
    31    17    29    1
    32    18    30    1
