@<TRIPOS>MOLECULE
*****
 32 35 0 0 0
SMALL
GASTEIGER

@<TRIPOS>ATOM
      1 N           0.2326    1.3596    2.1937 N.pl3   1  UNL1       -0.3436
      2 C          -0.3596    1.4128    0.9685 C.ar    1  UNL1        0.1129
      3 C          -0.2776    0.5584   -0.1206 C.ar    1  UNL1        0.0747
      4 C           0.4690   -0.8151   -0.1976 C.ar    1  UNL1        0.1408
      5 C           1.0878   -1.5114    0.8236 C.ar    1  UNL1       -0.0079
      6 C           1.6146   -2.7050    0.2607 C.ar    1  UNL1        0.0208
      7 C           2.3333   -3.8142    0.7400 C.ar    1  UNL1       -0.0510
      8 C           2.6780   -4.8317   -0.1622 C.ar    1  UNL1       -0.0610
      9 C           2.3155   -4.7535   -1.5101 C.ar    1  UNL1       -0.0582
     10 C           1.5967   -3.6595   -2.0030 C.ar    1  UNL1       -0.0187
     11 C           1.2714   -2.6669   -1.0824 C.ar    1  UNL1        0.1357
     12 O           0.5756   -1.5339   -1.3572 O.2     1  UNL1       -0.4547
     13 C          -0.9966    1.1501   -1.1943 C.ar    1  UNL1        0.0894
     14 C          -1.1598    0.6463   -2.5236 C.1     1  UNL1        0.1021
     15 N          -1.3175    0.2782   -3.6137 N.1     1  UNL1       -0.1908
     16 C          -1.5568    2.3218   -0.7273 C.ar    1  UNL1        0.0658
     17 C          -2.3860    3.3307   -1.3078 C.ar    1  UNL1       -0.0365
     18 C          -2.8071    4.3636   -0.5546 C.ar    1  UNL1       -0.0584
     19 C          -2.4412    4.4809    0.8442 C.ar    1  UNL1       -0.0451
     20 C          -1.6520    3.5419    1.3911 C.ar    1  UNL1        0.0115
     21 N          -1.2004    2.4679    0.6123 N.ar    1  UNL1       -0.3031
     22 H           1.1014    0.8382    2.2803 H       1  UNL1        0.1437
     23 H           0.2759    2.1981    2.7681 H       1  UNL1        0.1437
     24 H           1.1390   -1.2265    1.8620 H       1  UNL1        0.0661
     25 H           2.6175   -3.8872    1.7852 H       1  UNL1        0.0625
     26 H           3.2346   -5.6961    0.1940 H       1  UNL1        0.0618
     27 H           2.5937   -5.5571   -2.1888 H       1  UNL1        0.0619
     28 H           1.3029   -3.5817   -3.0428 H       1  UNL1        0.0654
     29 H          -2.6750    3.2579   -2.3529 H       1  UNL1        0.0639
     30 H          -3.4397    5.1371   -0.9802 H       1  UNL1        0.0619
     31 H          -2.8154    5.3220    1.4174 H       1  UNL1        0.0632
     32 H          -1.3547    3.5742    2.4297 H       1  UNL1        0.0813
@<TRIPOS>BOND
     1     1     2    1
     2     2     3   ar
     3     3     4    1
     4     4     5   ar
     5     5     6   ar
     6     6     7   ar
     7     7     8   ar
     8     8     9   ar
     9     9    10   ar
    10     6    11   ar
    11    11    12   ar
    12     3    13   ar
    13    13    14    1
    14    14    15    3
    15    13    16   ar
    16    16    17   ar
    17    17    18   ar
    18    18    19   ar
    19    19    20   ar
    20    20    21   ar
    21    21     2   ar
    22    12     4   ar
    23    11    10   ar
    24    21    16   ar
    25     1    22    1
    26     1    23    1
    27     5    24    1
    28     7    25    1
    29     8    26    1
    30     9    27    1
    31    10    28    1
    32    17    29    1
    33    18    30    1
    34    19    31    1
    35    20    32    1
