@<TRIPOS>MOLECULE
*****
 29 31 0 0 0
SMALL
GASTEIGER

@<TRIPOS>ATOM
      1 N          -0.6767   -0.6934   -2.0710 N.pl3   1  UNL1       -0.3437
      2 C          -0.7643   -0.2576   -0.7857 C.ar    1  UNL1        0.1099
      3 C           0.2449    0.0450    0.1184 C.ar    1  UNL1        0.0396
      4 C           1.6630   -0.0416   -0.1969 C.ar    1  UNL1       -0.0133
      5 C           2.2037    0.7242   -1.2387 C.ar    1  UNL1       -0.0528
      6 C           3.5665    0.6493   -1.5370 C.ar    1  UNL1       -0.0472
      7 C           4.3909   -0.1906   -0.7907 C.ar    1  UNL1        0.0179
      8 BR          6.2348   -0.2941   -1.1934 Br      1  UNL1       -0.0503
      9 C           3.8662   -0.9551    0.2500 C.ar    1  UNL1       -0.0472
     10 C           2.5025   -0.8801    0.5474 C.ar    1  UNL1       -0.0528
     11 C          -0.3789    0.4084    1.3457 C.ar    1  UNL1        0.0865
     12 C           0.2681    0.7889    2.5632 C.1     1  UNL1        0.1020
     13 N           0.7831    1.0858    3.5604 N.1     1  UNL1       -0.1908
     14 C          -1.7456    0.3444    1.1615 C.ar    1  UNL1        0.0657
     15 C          -2.8784    0.5926    1.9965 C.ar    1  UNL1       -0.0365
     16 C          -4.1200    0.4587    1.4942 C.ar    1  UNL1       -0.0584
     17 C          -4.3432    0.0689    0.1143 C.ar    1  UNL1       -0.0451
     18 C          -3.2822   -0.1728   -0.6728 C.ar    1  UNL1        0.0115
     19 N          -1.9871   -0.0447   -0.1560 N.ar    1  UNL1       -0.3032
     20 H          -1.4500   -1.1954   -2.4991 H       1  UNL1        0.1437
     21 H           0.2216   -1.0483   -2.3974 H       1  UNL1        0.1437
     22 H           1.5660    1.3876   -1.8202 H       1  UNL1        0.0624
     23 H           3.9719    1.2507   -2.3462 H       1  UNL1        0.0629
     24 H           4.5067   -1.6090    0.8361 H       1  UNL1        0.0629
     25 H           2.1058   -1.4856    1.3594 H       1  UNL1        0.0624
     26 H          -2.7329    0.8899    3.0315 H       1  UNL1        0.0639
     27 H          -4.9914    0.6454    2.1150 H       1  UNL1        0.0619
     28 H          -5.3606   -0.0141   -0.2518 H       1  UNL1        0.0632
     29 H          -3.3842   -0.4575   -1.7106 H       1  UNL1        0.0813
@<TRIPOS>BOND
     1     1     2    1
     2     2     3   ar
     3     3     4    1
     4     4     5   ar
     5     5     6   ar
     6     6     7   ar
     7     7     8    1
     8     7     9   ar
     9     9    10   ar
    10     3    11   ar
    11    11    12    1
    12    12    13    3
    13    11    14   ar
    14    14    15   ar
    15    15    16   ar
    16    16    17   ar
    17    17    18   ar
    18    18    19   ar
    19    19     2   ar
    20    10     4   ar
    21    19    14   ar
    22     1    20    1
    23     1    21    1
    24     5    22    1
    25     6    23    1
    26     9    24    1
    27    10    25    1
    28    15    26    1
    29    16    27    1
    30    17    28    1
    31    18    29    1
