@<TRIPOS>MOLECULE
*****
 39 42 0 0 0
SMALL
GASTEIGER

@<TRIPOS>ATOM
      1 N          -2.2763   -0.7529    2.0186 N.pl3   1  UNL1       -0.3437
      2 C          -2.5882   -0.1778    0.8306 C.ar    1  UNL1        0.1099
      3 C          -1.7560    0.2074   -0.2105 C.ar    1  UNL1        0.0396
      4 C          -0.3110    0.0613   -0.1814 C.ar    1  UNL1       -0.0133
      5 C           0.4573    0.8178    0.7083 C.ar    1  UNL1       -0.0533
      6 C           1.8492    0.6822    0.7274 C.ar    1  UNL1       -0.0535
      7 C           2.5026   -0.2085   -0.1402 C.ar    1  UNL1       -0.0178
      8 C           3.9676   -0.3503   -0.1184 C.ar    1  UNL1       -0.0179
      9 C           4.8053    0.7685   -0.2617 C.ar    1  UNL1       -0.0540
     10 C           6.1963    0.6348   -0.2411 C.ar    1  UNL1       -0.0612
     11 C           6.7736   -0.6215   -0.0757 C.ar    1  UNL1       -0.0617
     12 C           5.9617   -1.7436    0.0680 C.ar    1  UNL1       -0.0612
     13 C           4.5709   -1.6084    0.0460 C.ar    1  UNL1       -0.0540
     14 C           1.7163   -0.9584   -1.0305 C.ar    1  UNL1       -0.0535
     15 C           0.3239   -0.8251   -1.0545 C.ar    1  UNL1       -0.0533
     16 C          -2.5769    0.7427   -1.2411 C.ar    1  UNL1        0.0865
     17 C          -2.1469    1.2676   -2.5000 C.1     1  UNL1        0.1020
     18 N          -1.8163    1.6923   -3.5288 N.1     1  UNL1       -0.1908
     19 C          -3.8874    0.6808   -0.8111 C.ar    1  UNL1        0.0657
     20 C          -5.1429    1.0596   -1.3786 C.ar    1  UNL1       -0.0365
     21 C          -6.2788    0.8473   -0.6882 C.ar    1  UNL1       -0.0584
     22 C          -6.2647    0.2358    0.6278 C.ar    1  UNL1       -0.0451
     23 C          -5.0872   -0.1179    1.1680 C.ar    1  UNL1        0.0115
     24 N          -3.8997    0.1058    0.4604 N.ar    1  UNL1       -0.3032
     25 H          -2.9190   -0.7736    2.8039 H       1  UNL1        0.1437
     26 H          -1.3007   -0.8493    2.2950 H       1  UNL1        0.1437
     27 H          -0.0195    1.5198    1.3886 H       1  UNL1        0.0624
     28 H           2.4254    1.2758    1.4346 H       1  UNL1        0.0624
     29 H           4.3750    1.7577   -0.4053 H       1  UNL1        0.0624
     30 H           6.8266    1.5124   -0.3586 H       1  UNL1        0.0618
     31 H           7.8552   -0.7260   -0.0604 H       1  UNL1        0.0618
     32 H           6.4088   -2.7256    0.1987 H       1  UNL1        0.0618
     33 H           3.9551   -2.4970    0.1697 H       1  UNL1        0.0624
     34 H           2.1889   -1.6479   -1.7278 H       1  UNL1        0.0624
     35 H          -0.2539   -1.4217   -1.7566 H       1  UNL1        0.0624
     36 H          -5.1751    1.5163   -2.3640 H       1  UNL1        0.0639
     37 H          -7.2411    1.1287   -1.1057 H       1  UNL1        0.0619
     38 H          -7.2047    0.0745    1.1437 H       1  UNL1        0.0632
     39 H          -5.0135   -0.5833    2.1406 H       1  UNL1        0.0813
@<TRIPOS>BOND
     1     1     2    1
     2     2     3   ar
     3     3     4    1
     4     4     5   ar
     5     5     6   ar
     6     6     7   ar
     7     7     8    1
     8     8     9   ar
     9     9    10   ar
    10    10    11   ar
    11    11    12   ar
    12    12    13   ar
    13     7    14   ar
    14    14    15   ar
    15     3    16   ar
    16    16    17    1
    17    17    18    3
    18    16    19   ar
    19    19    20   ar
    20    20    21   ar
    21    21    22   ar
    22    22    23   ar
    23    23    24   ar
    24    24     2   ar
    25    15     4   ar
    26    13     8   ar
    27    24    19   ar
    28     1    25    1
    29     1    26    1
    30     5    27    1
    31     6    28    1
    32     9    29    1
    33    10    30    1
    34    11    31    1
    35    12    32    1
    36    13    33    1
    37    14    34    1
    38    15    35    1
    39    20    36    1
    40    21    37    1
    41    22    38    1
    42    23    39    1
