@<TRIPOS>MOLECULE
*****
 40 46 0 0 0
SMALL
GASTEIGER

@<TRIPOS>ATOM
      1 SI         -4.3744   -1.0754   -2.1953 Si      1  UNL1        0.0000
      2 C          -6.2836   -0.8246   -2.2073 C.2     1  UNL1        0.0000
      3 C          -6.6673    0.0642   -1.2627 C.2     1  UNL1        0.0000
      4 C          -5.6021    0.5964   -0.4704 C.ar    1  UNL1        0.0000
      5 C          -5.6256    1.4644    0.5858 C.ar    1  UNL1        0.0000
      6 S          -4.0314    1.7258    1.1886 S.2     1  UNL1        0.0000
      7 C          -3.2946    0.6557    0.0328 C.ar    1  UNL1        0.0000
      8 C          -4.2857    0.1541   -0.7660 C.ar    1  UNL1        0.0000
      9 C          -1.8417    0.4285    0.0150 C.ar    1  UNL1        0.0000
     10 C          -1.0385    0.5322    1.1478 C.ar    1  UNL1        0.0000
     11 C           0.3480    0.2973    1.0288 C.ar    1  UNL1        0.0000
     12 C           1.3277    0.3497    2.0702 C.ar    1  UNL1        0.0000
     13 C           1.0412    0.6456    3.3873 C.ar    1  UNL1        0.0000
     14 S           2.4478    0.6179    4.3956 S.2     1  UNL1        0.0000
     15 C           3.4795    0.2157    3.0731 C.ar    1  UNL1        0.0000
     16 C           2.7251    0.1131    1.9438 C.ar    1  UNL1        0.0000
     17 C           3.1593   -0.2044    0.6342 C.ar    1  UNL1        0.0000
     18 C           4.4583   -0.4705    0.2190 C.ar    1  UNL1        0.0000
     19 N           5.7660   -0.5829    0.5958 N.ar    1  UNL1        0.0000
     20 C           6.5009   -0.8831   -0.5260 C.ar    1  UNL1        0.0000
     21 C           5.6702   -0.9793   -1.6261 C.ar    1  UNL1        0.0000
     22 C           4.3741   -0.7085   -1.1216 C.ar    1  UNL1        0.0000
     23 N           3.0576   -0.6035   -1.5239 N.ar    1  UNL1        0.0000
     24 C           2.2786   -0.2766   -0.4250 C.ar    1  UNL1        0.0000
     25 C           0.8811   -0.0380   -0.2510 C.ar    1  UNL1        0.0000
     26 C          -0.0176   -0.1263   -1.3137 C.ar    1  UNL1        0.0000
     27 N          -1.3505    0.0901   -1.2048 N.ar    1  UNL1        0.0000
     28 H          -3.8146   -0.6300   -3.4947 H       1  UNL1        0.0000
     29 H          -4.0710   -2.4800   -1.8186 H       1  UNL1        0.0000
     30 H          -6.9063   -1.3673   -2.9004 H       1  UNL1        0.0000
     31 H          -7.7014    0.3446   -1.0958 H       1  UNL1        0.0000
     32 H          -6.4704    1.9532    1.0473 H       1  UNL1        0.0000
     33 H          -1.4732    0.7737    2.1102 H       1  UNL1        0.0000
     34 H           0.0904    0.8799    3.8456 H       1  UNL1        0.0000
     35 H           4.5391    0.0845    3.2272 H       1  UNL1        0.0000
     36 H           6.1025   -0.4381    1.5376 H       1  UNL1        0.0000
     37 H           7.5734   -1.0049   -0.4459 H       1  UNL1        0.0000
     38 H           5.9643   -1.2056   -2.6404 H       1  UNL1        0.0000
     39 H           2.7568   -0.7503   -2.4803 H       1  UNL1        0.0000
     40 H           0.3079   -0.3852   -2.3159 H       1  UNL1        0.0000
@<TRIPOS>BOND
     1     1     2    1
     2     2     3    2
     3     3     4    1
     4     4     5   ar
     5     5     6   ar
     6     6     7   ar
     7     7     8   ar
     8     7     9    1
     9     9    10   ar
    10    10    11   ar
    11    11    12   ar
    12    12    13   ar
    13    13    14   ar
    14    14    15   ar
    15    15    16   ar
    16    16    17   ar
    17    17    18   ar
    18    18    19   ar
    19    19    20   ar
    20    20    21   ar
    21    21    22   ar
    22    22    23   ar
    23    23    24   ar
    24    24    25   ar
    25    25    26   ar
    26    26    27   ar
    27     8     1    1
    28    27     9   ar
    29     8     4   ar
    30    25    11   ar
    31    16    12   ar
    32    24    17   ar
    33    22    18   ar
    34     1    28    1
    35     1    29    1
    36     2    30    1
    37     3    31    1
    38     5    32    1
    39    10    33    1
    40    13    34    1
    41    15    35    1
    42    19    36    1
    43    20    37    1
    44    21    38    1
    45    23    39    1
    46    26    40    1
