@<TRIPOS>MOLECULE
*****
 28 30 0 0 0
SMALL
GASTEIGER

@<TRIPOS>ATOM
      1 N          -1.1424   -0.6750   -2.0162 N.pl3   1  UNL1       -0.3425
      2 C          -0.2945   -0.1019   -1.1177 C.ar    1  UNL1        0.1285
      3 C          -0.2044   -0.1740    0.2665 C.ar    1  UNL1        0.1113
      4 C          -1.0891   -0.9023    1.1607 C.ar    1  UNL1        0.0038
      5 C          -2.4759   -0.9357    0.9574 C.ar    1  UNL1       -0.0511
      6 C          -3.3052   -1.6375    1.8380 C.ar    1  UNL1       -0.0428
      7 C          -2.7514   -2.3016    2.9308 C.ar    1  UNL1        0.0410
      8 CL         -3.7725   -3.1655    4.0127 Cl      1  UNL1       -0.0835
      9 C          -1.3774   -2.2644    3.1556 C.ar    1  UNL1       -0.0428
     10 C          -0.5500   -1.5616    2.2749 C.ar    1  UNL1       -0.0511
     11 N           0.8941    0.5159    0.7317 N.ar    1  UNL1       -0.2258
     12 C           1.4414    1.0607   -0.3309 C.ar    1  UNL1        0.1409
     13 C           2.5853    1.9005   -0.4568 C.ar    1  UNL1       -0.0014
     14 C           2.9591    2.3600   -1.6701 C.ar    1  UNL1        0.0566
     15 C           4.1028    3.2018   -1.8044 C.1     1  UNL1        0.0993
     16 N           5.0326    3.8855   -1.9239 N.1     1  UNL1       -0.1909
     17 C           2.1975    2.0049   -2.8678 C.ar    1  UNL1       -0.0276
     18 C           1.1212    1.2067   -2.7537 C.ar    1  UNL1        0.0141
     19 N           0.7479    0.7329   -1.4935 N.ar    1  UNL1       -0.2876
     20 H          -0.8631   -0.7813   -2.9882 H       1  UNL1        0.1437
     21 H          -1.6859   -1.4800   -1.7050 H       1  UNL1        0.1437
     22 H          -2.9253   -0.3972    0.1259 H       1  UNL1        0.0625
     23 H          -4.3788   -1.6527    1.6707 H       1  UNL1        0.0632
     24 H          -0.9429   -2.7720    4.0124 H       1  UNL1        0.0632
     25 H           0.5222   -1.5270    2.4606 H       1  UNL1        0.0625
     26 H           3.1293    2.1501    0.4490 H       1  UNL1        0.0667
     27 H           2.5111    2.3949   -3.8322 H       1  UNL1        0.0645
     28 H           0.5143    0.9158   -3.6005 H       1  UNL1        0.0814
@<TRIPOS>BOND
     1     1     2    1
     2     2     3   ar
     3     3     4    1
     4     4     5   ar
     5     5     6   ar
     6     6     7   ar
     7     7     8    1
     8     7     9   ar
     9     9    10   ar
    10     3    11   ar
    11    11    12   ar
    12    12    13   ar
    13    13    14   ar
    14    14    15    1
    15    15    16    3
    16    14    17   ar
    17    17    18   ar
    18    18    19   ar
    19    19     2   ar
    20    10     4   ar
    21    19    12   ar
    22     1    20    1
    23     1    21    1
    24     5    22    1
    25     6    23    1
    26     9    24    1
    27    10    25    1
    28    13    26    1
    29    17    27    1
    30    18    28    1
