@<TRIPOS>MOLECULE
*****
 33 35 0 0 0
SMALL
GASTEIGER

@<TRIPOS>ATOM
      1 N           2.0660   -1.5682   -0.2657 N.pl3   1  UNL1       -0.3437
      2 C           1.7202   -0.3367    0.1960 C.ar    1  UNL1        0.1099
      3 C           0.4672    0.2534    0.2946 C.ar    1  UNL1        0.0396
      4 C          -0.7698   -0.4099   -0.0908 C.ar    1  UNL1       -0.0131
      5 C          -1.6041    0.1559   -1.0611 C.ar    1  UNL1       -0.0504
      6 C          -2.7997   -0.4754   -1.4266 C.ar    1  UNL1       -0.0194
      7 C          -3.1719   -1.6775   -0.8243 C.ar    1  UNL1        0.1201
      8 O          -4.3059   -2.3938   -1.0901 O.3     1  UNL1       -0.4951
      9 C          -5.2189   -1.8285   -2.0224 C.3     1  UNL1        0.0788
     10 C          -2.3386   -2.2421    0.1441 C.ar    1  UNL1       -0.0194
     11 C          -1.1464   -1.6138    0.5129 C.ar    1  UNL1       -0.0504
     12 C           0.6577    1.5728    0.7953 C.ar    1  UNL1        0.0865
     13 C          -0.3513    2.5548    1.0475 C.1     1  UNL1        0.1020
     14 N          -1.1586    3.3665    1.2407 N.1     1  UNL1       -0.1908
     15 C           2.0090    1.7523    1.0142 C.ar    1  UNL1        0.0657
     16 C           2.8067    2.8324    1.5031 C.ar    1  UNL1       -0.0365
     17 C           4.1385    2.6776    1.6232 C.ar    1  UNL1       -0.0584
     18 C           4.7932    1.4315    1.2703 C.ar    1  UNL1       -0.0451
     19 C           4.0491    0.4157    0.8034 C.ar    1  UNL1        0.0115
     20 N           2.6642    0.5711    0.6666 N.ar    1  UNL1       -0.3032
     21 H           3.0066   -1.7472   -0.6064 H       1  UNL1        0.1437
     22 H           1.3716   -2.0934   -0.7967 H       1  UNL1        0.1437
     23 H          -1.3331    1.0896   -1.5491 H       1  UNL1        0.0625
     24 H          -3.4142   -0.0002   -2.1839 H       1  UNL1        0.0654
     25 H          -4.7673   -1.7484   -3.0166 H       1  UNL1        0.0660
     26 H          -5.5886   -0.8578   -1.6757 H       1  UNL1        0.0660
     27 H          -6.0772   -2.5028   -2.1005 H       1  UNL1        0.0660
     28 H          -2.6233   -3.1770    0.6207 H       1  UNL1        0.0654
     29 H          -0.5188   -2.0682    1.2767 H       1  UNL1        0.0625
     30 H           2.3351    3.7721    1.7774 H       1  UNL1        0.0639
     31 H           4.7586    3.4880    1.9950 H       1  UNL1        0.0619
     32 H           5.8670    1.3465    1.3956 H       1  UNL1        0.0632
     33 H           4.4772   -0.5392    0.5326 H       1  UNL1        0.0813
@<TRIPOS>BOND
     1     1     2    1
     2     2     3   ar
     3     3     4    1
     4     4     5   ar
     5     5     6   ar
     6     6     7   ar
     7     7     8    1
     8     8     9    1
     9     7    10   ar
    10    10    11   ar
    11     3    12   ar
    12    12    13    1
    13    13    14    3
    14    12    15   ar
    15    15    16   ar
    16    16    17   ar
    17    17    18   ar
    18    18    19   ar
    19    19    20   ar
    20    20     2   ar
    21    11     4   ar
    22    20    15   ar
    23     1    21    1
    24     1    22    1
    25     5    23    1
    26     6    24    1
    27     9    25    1
    28     9    26    1
    29     9    27    1
    30    10    28    1
    31    11    29    1
    32    16    30    1
    33    17    31    1
    34    18    32    1
    35    19    33    1
