@<TRIPOS>MOLECULE
*****
 29 31 0 0 0
SMALL
GASTEIGER

@<TRIPOS>ATOM
      1 N           1.2265   -1.9574   -0.0643 N.pl3   1  UNL1       -0.3437
      2 C           0.4202   -0.9628    0.3948 C.ar    1  UNL1        0.1099
      3 C          -0.0440    0.1725   -0.2555 C.ar    1  UNL1        0.0396
      4 C           0.2663    0.4917   -1.6413 C.ar    1  UNL1       -0.0134
      5 C           0.9209    1.6870   -1.9617 C.ar    1  UNL1       -0.0539
      6 C           1.2091    1.9954   -3.2931 C.ar    1  UNL1       -0.0612
      7 C           0.8445    1.1137   -4.3099 C.ar    1  UNL1       -0.0617
      8 C           0.1907   -0.0775   -3.9987 C.ar    1  UNL1       -0.0612
      9 C          -0.0991   -0.3877   -2.6687 C.ar    1  UNL1       -0.0539
     10 C          -0.8134    0.9158    0.6840 C.ar    1  UNL1        0.0865
     11 C          -1.4785    2.1625    0.4622 C.1     1  UNL1        0.1020
     12 N          -2.0128    3.1810    0.3031 N.1     1  UNL1       -0.1908
     13 C          -0.8239    0.2136    1.8728 C.ar    1  UNL1        0.0657
     14 C          -1.4137    0.4312    3.1561 C.ar    1  UNL1       -0.0365
     15 C          -1.2508   -0.4843    4.1295 C.ar    1  UNL1       -0.0584
     16 C          -0.4887   -1.6996    3.9095 C.ar    1  UNL1       -0.0451
     17 C           0.0738   -1.9055    2.7076 C.ar    1  UNL1        0.0115
     18 N          -0.0829   -0.9542    1.6921 N.ar    1  UNL1       -0.3032
     19 H           1.7706   -2.5193    0.5847 H       1  UNL1        0.1437
     20 H           1.7377   -1.7929   -0.9314 H       1  UNL1        0.1437
     21 H           1.2168    2.3853   -1.1824 H       1  UNL1        0.0624
     22 H           1.7155    2.9261   -3.5363 H       1  UNL1        0.0618
     23 H           1.0664    1.3576   -5.3458 H       1  UNL1        0.0618
     24 H          -0.0989   -0.7627   -4.7912 H       1  UNL1        0.0618
     25 H          -0.6166   -1.3167   -2.4378 H       1  UNL1        0.0624
     26 H          -1.9919    1.3326    3.3396 H       1  UNL1        0.0639
     27 H          -1.6940   -0.3348    5.1096 H       1  UNL1        0.0619
     28 H          -0.3944   -2.4160    4.7180 H       1  UNL1        0.0632
     29 H           0.6450   -2.7946    2.4798 H       1  UNL1        0.0813
@<TRIPOS>BOND
     1     1     2    1
     2     2     3   ar
     3     3     4    1
     4     4     5   ar
     5     5     6   ar
     6     6     7   ar
     7     7     8   ar
     8     8     9   ar
     9     3    10   ar
    10    10    11    1
    11    11    12    3
    12    10    13   ar
    13    13    14   ar
    14    14    15   ar
    15    15    16   ar
    16    16    17   ar
    17    17    18   ar
    18    18     2   ar
    19     9     4   ar
    20    18    13   ar
    21     1    19    1
    22     1    20    1
    23     5    21    1
    24     6    22    1
    25     7    23    1
    26     8    24    1
    27     9    25    1
    28    14    26    1
    29    15    27    1
    30    16    28    1
    31    17    29    1
