@<TRIPOS>MOLECULE
*****
 28 30 0 0 0
SMALL
GASTEIGER

@<TRIPOS>ATOM
      1 N           0.1131   -0.2940    2.2961 N.pl3   1  UNL1       -0.3437
      2 C           0.3685   -0.5967    0.9976 C.ar    1  UNL1        0.1100
      3 C          -0.0402    0.0405   -0.1685 C.ar    1  UNL1        0.0397
      4 C          -0.8904    1.2214   -0.1874 C.ar    1  UNL1       -0.0134
      5 C          -2.1673    1.1833    0.3876 C.ar    1  UNL1       -0.0539
      6 C          -2.9868    2.3133    0.3603 C.ar    1  UNL1       -0.0612
      7 C          -2.5365    3.4863   -0.2432 C.ar    1  UNL1       -0.0617
      8 C          -1.2678    3.5314   -0.8198 C.ar    1  UNL1       -0.0612
      9 C          -0.4459    2.4025   -0.7934 C.ar    1  UNL1       -0.0539
     10 C           0.5414   -0.6641   -1.2633 C.ar    1  UNL1        0.0879
     11 C           0.4102   -0.3737   -2.6565 C.1     1  UNL1        0.1020
     12 N           0.3347   -0.1568   -3.7938 N.1     1  UNL1       -0.1908
     13 C           1.2633   -1.7127   -0.7384 C.ar    1  UNL1        0.0838
     14 C           2.0513   -2.7620   -1.3304 C.ar    1  UNL1        0.0527
     15 N           2.6448   -3.6721   -0.6093 N.ar    1  UNL1       -0.2597
     16 C           2.4896   -3.6059    0.7623 C.ar    1  UNL1        0.0441
     17 C           1.7754   -2.6589    1.3925 C.ar    1  UNL1        0.0296
     18 N           1.1479   -1.6821    0.6328 N.ar    1  UNL1       -0.3003
     19 H          -0.2702    0.6269    2.5104 H       1  UNL1        0.1437
     20 H           0.7190   -0.6292    3.0404 H       1  UNL1        0.1437
     21 H          -2.5331    0.2711    0.8547 H       1  UNL1        0.0624
     22 H          -3.9779    2.2760    0.8052 H       1  UNL1        0.0618
     23 H          -3.1760    4.3652   -0.2681 H       1  UNL1        0.0618
     24 H          -0.9184    4.4456   -1.2932 H       1  UNL1        0.0618
     25 H           0.5420    2.4599   -1.2443 H       1  UNL1        0.0624
     26 H           2.1606   -2.8011   -2.4270 H       1  UNL1        0.0851
     27 H           2.9889   -4.3868    1.3305 H       1  UNL1        0.0844
     28 H           1.6598   -2.6273    2.4663 H       1  UNL1        0.0829
@<TRIPOS>BOND
     1     1     2    1
     2     2     3   ar
     3     3     4    1
     4     4     5   ar
     5     5     6   ar
     6     6     7   ar
     7     7     8   ar
     8     8     9   ar
     9     3    10   ar
    10    10    11    1
    11    11    12    3
    12    10    13   ar
    13    13    14   ar
    14    14    15   ar
    15    15    16   ar
    16    16    17   ar
    17    17    18   ar
    18    18     2   ar
    19     9     4   ar
    20    18    13   ar
    21     1    19    1
    22     1    20    1
    23     5    21    1
    24     6    22    1
    25     7    23    1
    26     8    24    1
    27     9    25    1
    28    14    26    1
    29    16    27    1
    30    17    28    1
