@<TRIPOS>MOLECULE
*****
 32 35 0 0 0
SMALL
GASTEIGER

@<TRIPOS>ATOM
      1 N          -1.3753    1.2969   -1.0469 N.pl3   1  UNL1       -0.3436
      2 C          -1.2313    0.4192   -0.0158 C.ar    1  UNL1        0.1115
      3 C          -0.0946    0.0299    0.6752 C.ar    1  UNL1        0.0601
      4 C           1.2889    0.4512    0.4494 C.ar    1  UNL1        0.1047
      5 N           2.0834    0.8346    1.4553 N.ar    1  UNL1       -0.1726
      6 N           3.2458    1.1223    0.8479 N.ar    1  UNL1       -0.2764
      7 C           3.2308    0.9464   -0.5101 C.ar    1  UNL1        0.0663
      8 C           1.9492    0.4915   -0.8082 C.ar    1  UNL1        0.0275
      9 C           1.6351    0.1877   -2.1478 C.ar    1  UNL1       -0.0505
     10 C           2.6113    0.3705   -3.1350 C.ar    1  UNL1       -0.0610
     11 C           3.8822    0.8392   -2.8035 C.ar    1  UNL1       -0.0597
     12 C           4.2212    1.1353   -1.4795 C.ar    1  UNL1       -0.0363
     13 C          -0.4920   -0.8549    1.7127 C.ar    1  UNL1        0.0880
     14 C           0.3405   -1.5010    2.6818 C.1     1  UNL1        0.1020
     15 N           0.9725   -2.0669    3.4754 N.1     1  UNL1       -0.1908
     16 C          -1.8606   -1.0190    1.6157 C.ar    1  UNL1        0.0658
     17 C          -2.8287   -1.7754    2.3456 C.ar    1  UNL1       -0.0365
     18 C          -4.1221   -1.7393    1.9749 C.ar    1  UNL1       -0.0584
     19 C          -4.5657   -0.9487    0.8417 C.ar    1  UNL1       -0.0451
     20 C          -3.6616   -0.2292    0.1572 C.ar    1  UNL1        0.0115
     21 N          -2.3150   -0.2536    0.5414 N.ar    1  UNL1       -0.3032
     22 H          -0.6018    1.9345   -1.2388 H       1  UNL1        0.1437
     23 H          -2.2690    1.7581   -1.1986 H       1  UNL1        0.1437
     24 H           4.0217    1.4327    1.4214 H       1  UNL1        0.1889
     25 H           0.6513   -0.1881   -2.4158 H       1  UNL1        0.0625
     26 H           2.3747    0.1381   -4.1709 H       1  UNL1        0.0618
     27 H           4.6256    0.9697   -3.5874 H       1  UNL1        0.0618
     28 H           5.2141    1.4899   -1.2227 H       1  UNL1        0.0639
     29 H          -2.5158   -2.3758    3.1956 H       1  UNL1        0.0639
     30 H          -4.8696   -2.3090    2.5192 H       1  UNL1        0.0619
     31 H          -5.6157   -0.9593    0.5710 H       1  UNL1        0.0632
     32 H          -3.9296    0.3719   -0.7004 H       1  UNL1        0.0813
@<TRIPOS>BOND
     1     1     2    1
     2     2     3   ar
     3     3     4    1
     4     4     5   ar
     5     5     6   ar
     6     6     7   ar
     7     7     8   ar
     8     8     9   ar
     9     9    10   ar
    10    10    11   ar
    11    11    12   ar
    12     3    13   ar
    13    13    14    1
    14    14    15    3
    15    13    16   ar
    16    16    17   ar
    17    17    18   ar
    18    18    19   ar
    19    19    20   ar
    20    20    21   ar
    21    21     2   ar
    22     8     4   ar
    23    12     7   ar
    24    21    16   ar
    25     1    22    1
    26     1    23    1
    27     6    24    1
    28     9    25    1
    29    10    26    1
    30    11    27    1
    31    12    28    1
    32    17    29    1
    33    18    30    1
    34    19    31    1
    35    20    32    1
