@<TRIPOS>MOLECULE
*****
 21 22 0 0 0
SMALL
GASTEIGER

@<TRIPOS>ATOM
      1 N           1.0674   -2.1480   -1.8032 N.pl3   1  UNL1       -0.3575
      2 C           0.9775   -0.8728   -1.1979 C.ar    1  UNL1        0.0326
      3 C          -0.0758   -0.5118   -0.3110 C.ar    1  UNL1        0.0101
      4 C          -0.0207    0.7470    0.3463 C.ar    1  UNL1        0.0699
      5 C          -1.0862    1.1037    1.2052 C.ar    1  UNL1        0.2991
      6 N          -1.0836    2.3276    1.8696 N.1     1  UNL1       -0.2663
      7 C          -1.1038    3.3518    2.4406 C.2     1  UNL1       -0.2277
      8 C          -2.1759    0.2642    1.4379 C.ar    1  UNL1        0.0252
      9 C          -2.2236   -0.9699    0.8096 C.ar    1  UNL1       -0.0539
     10 C          -1.1891   -1.3503   -0.0496 C.ar    1  UNL1       -0.0518
     11 C           1.0955    1.5848    0.1282 C.ar    1  UNL1       -0.0466
     12 C           2.1452    1.1929   -0.6971 C.ar    1  UNL1       -0.0592
     13 C           2.0921   -0.0372   -1.3381 C.ar    1  UNL1       -0.0404
     14 H           0.1632   -2.5699   -1.9824 H       1  UNL1        0.1423
     15 H           1.6345   -2.7706   -1.2308 H       1  UNL1        0.1423
     16 H          -2.9764    0.5702    2.1062 H       1  UNL1        0.0694
     17 H          -3.0625   -1.6398    0.9818 H       1  UNL1        0.0620
     18 H          -1.2689   -2.3273   -0.5189 H       1  UNL1        0.0624
     19 H           1.1687    2.5556    0.6156 H       1  UNL1        0.0626
     20 H           3.0042    1.8439   -0.8364 H       1  UNL1        0.0618
     21 H           2.9183   -0.3440   -1.9757 H       1  UNL1        0.0636
@<TRIPOS>UNITY_ATOM_ATTR
6 1
charge 1
7 1
charge -1
@<TRIPOS>BOND
     1     1     2    1
     2     2     3   ar
     3     3     4   ar
     4     4     5   ar
     5     5     6    1
     6     6     7    3
     7     5     8   ar
     8     8     9   ar
     9     9    10   ar
    10     4    11   ar
    11    11    12   ar
    12    12    13   ar
    13    13     2   ar
    14    10     3   ar
    15     1    14    1
    16     1    15    1
    17     8    16    1
    18     9    17    1
    19    10    18    1
    20    11    19    1
    21    12    20    1
    22    13    21    1
