@<TRIPOS>MOLECULE
*****
 19 19 0 0 0
SMALL
GASTEIGER

@<TRIPOS>ATOM
      1 N          -3.3618    1.3971    0.5668 N.pl3   1  UNL1       -0.3431
      2 C          -2.3136    0.4908    0.4466 C.ar    1  UNL1        0.1169
      3 C          -1.0043    0.9309    0.3770 C.ar    1  UNL1       -0.0081
      4 C           0.0161   -0.0178    0.2868 C.ar    1  UNL1        0.0636
      5 C           1.4167    0.4680    0.2055 C.2     1  UNL1        0.3391
      6 O           2.2837   -0.5748    0.1873 O.3     1  UNL1       -0.4644
      7 C           3.6563   -0.1852    0.1147 C.3     1  UNL1        0.0820
      8 O           1.7179    1.6500    0.1613 O.2     1  UNL1       -0.2450
      9 C          -0.3079   -1.3732    0.2759 C.ar    1  UNL1       -0.0295
     10 C          -1.6440   -1.7129    0.3586 C.ar    1  UNL1        0.0304
     11 N          -2.6449   -0.8103    0.4438 N.ar    1  UNL1       -0.2407
     12 H          -4.2257    0.8604    0.5558 H       1  UNL1        0.1437
     13 H          -3.3425    2.0998   -0.1628 H       1  UNL1        0.1437
     14 H          -0.7798    1.9925    0.4045 H       1  UNL1        0.0660
     15 H           4.2659   -1.0930    0.1086 H       1  UNL1        0.0661
     16 H           3.8492    0.3680   -0.8098 H       1  UNL1        0.0661
     17 H           3.9324    0.4116    0.9897 H       1  UNL1        0.0661
     18 H           0.4459   -2.1492    0.2091 H       1  UNL1        0.0641
     19 H          -1.9594   -2.7527    0.3599 H       1  UNL1        0.0830
@<TRIPOS>BOND
     1     1     2    1
     2     2     3   ar
     3     3     4   ar
     4     4     5    1
     5     5     6    1
     6     6     7    1
     7     5     8    2
     8     4     9   ar
     9     9    10   ar
    10    10    11   ar
    11    11     2   ar
    12     1    12    1
    13     1    13    1
    14     3    14    1
    15     7    15    1
    16     7    16    1
    17     7    17    1
    18     9    18    1
    19    10    19    1
