@<TRIPOS>MOLECULE
*****
 42 43 0 0 0
SMALL
GASTEIGER

@<TRIPOS>ATOM
      1 N          -9.5984   -0.2193    0.8854 N.pl3   1  UNL1       -0.3580
      2 C          -8.2871   -0.0075    0.4462 C.ar    1  UNL1        0.0246
      3 C          -7.3684   -1.0582    0.4375 C.ar    1  UNL1       -0.0405
      4 C          -6.0251   -0.8334    0.1140 C.ar    1  UNL1       -0.0529
      5 C          -5.5656    0.4601   -0.1559 C.ar    1  UNL1       -0.0249
      6 C          -4.1716    0.7377   -0.5277 C.2     1  UNL1       -0.0546
      7 C          -3.1128    0.1414    0.0427 C.2     1  UNL1       -0.0612
      8 C          -1.7489    0.4380   -0.3381 C.2     1  UNL1       -0.0617
      9 C          -0.6885   -0.1485    0.2379 C.2     1  UNL1       -0.0618
     10 C           0.6756    0.1472   -0.1427 C.2     1  UNL1       -0.0618
     11 C           1.7358   -0.4391    0.4338 C.2     1  UNL1       -0.0617
     12 C           3.1000   -0.1427    0.0537 C.2     1  UNL1       -0.0612
     13 C           4.1579   -0.7383    0.6264 C.2     1  UNL1       -0.0546
     14 C           5.5526   -0.4615    0.2561 C.ar    1  UNL1       -0.0246
     15 C           6.0086    0.8379   -0.0102 C.ar    1  UNL1       -0.0482
     16 C           7.3496    1.0723   -0.3321 C.ar    1  UNL1        0.0161
     17 C           8.2458   -0.0020   -0.3780 C.ar    1  UNL1        0.2732
     18 N           9.6544    0.2379   -0.7151 N.pl3   1  UNL1        0.0796
     19 O           9.9979    1.4026   -0.9632 O.co2   1  UNL1       -0.5760
     20 O          10.4178   -0.7384   -0.7319 O.2     1  UNL1        0.0414
     21 C           7.8097   -1.3027   -0.0994 C.ar    1  UNL1        0.0161
     22 C           6.4667   -1.5245    0.2219 C.ar    1  UNL1       -0.0482
     23 C          -6.4780    1.5190   -0.1037 C.ar    1  UNL1       -0.0529
     24 C          -7.8196    1.2882    0.2215 C.ar    1  UNL1       -0.0405
     25 H         -10.2556    0.4876    0.5710 H       1  UNL1        0.1423
     26 H          -9.9384   -1.1617    0.7223 H       1  UNL1        0.1423
     27 H          -7.6900   -2.0681    0.6769 H       1  UNL1        0.0636
     28 H          -5.3470   -1.6822    0.0785 H       1  UNL1        0.0624
     29 H          -4.0340    1.4911   -1.2997 H       1  UNL1        0.0623
     30 H          -3.2573   -0.5897    0.8354 H       1  UNL1        0.0618
     31 H          -1.6035    1.1716   -1.1285 H       1  UNL1        0.0618
     32 H          -0.8355   -0.8815    1.0288 H       1  UNL1        0.0618
     33 H           0.8212    0.8803   -0.9337 H       1  UNL1        0.0618
     34 H           1.5884   -1.1722    1.2246 H       1  UNL1        0.0618
     35 H           3.2424    0.5883   -0.7396 H       1  UNL1        0.0618
     36 H           4.0163   -1.4904    1.3995 H       1  UNL1        0.0623
     37 H           5.3265    1.6844    0.0414 H       1  UNL1        0.0626
     38 H           7.6744    2.0905   -0.5363 H       1  UNL1        0.0685
     39 H           8.4943   -2.1480   -0.1264 H       1  UNL1        0.0685
     40 H           6.1370   -2.5398    0.4364 H       1  UNL1        0.0626
     41 H          -6.1508    2.5388   -0.2922 H       1  UNL1        0.0624
     42 H          -8.4968    2.1348    0.2951 H       1  UNL1        0.0636
@<TRIPOS>UNITY_ATOM_ATTR
18 1
charge 1
19 1
charge -1
@<TRIPOS>BOND
     1     1     2    1
     2     2     3   ar
     3     3     4   ar
     4     4     5   ar
     5     5     6    1
     6     6     7    2
     7     7     8    1
     8     8     9    2
     9     9    10    1
    10    10    11    2
    11    11    12    1
    12    12    13    2
    13    13    14    1
    14    14    15   ar
    15    15    16   ar
    16    16    17   ar
    17    17    18    1
    18    18    19    1
    19    18    20    2
    20    17    21   ar
    21    21    22   ar
    22     5    23   ar
    23    23    24   ar
    24    24     2   ar
    25    22    14   ar
    26     1    25    1
    27     1    26    1
    28     3    27    1
    29     4    28    1
    30     6    29    1
    31     7    30    1
    32     8    31    1
    33     9    32    1
    34    10    33    1
    35    11    34    1
    36    12    35    1
    37    13    36    1
    38    15    37    1
    39    16    38    1
    40    21    39    1
    41    22    40    1
    42    23    41    1
    43    24    42    1
