@<TRIPOS>MOLECULE
*****
 38 39 0 0 0
SMALL
GASTEIGER

@<TRIPOS>ATOM
      1 N           8.4619    0.0727   -0.3012 N.pl3   1  UNL1       -0.3580
      2 C           7.0823    0.2056   -0.1093 C.ar    1  UNL1        0.0246
      3 C           6.5886    0.9817    0.9402 C.ar    1  UNL1       -0.0405
      4 C           5.2153    1.2183    1.0716 C.ar    1  UNL1       -0.0529
      5 C           4.3114    0.7064    0.1350 C.ar    1  UNL1       -0.0249
      6 C           2.8802    1.0017    0.2885 C.2     1  UNL1       -0.0546
      7 C           1.9018    0.1282    0.0029 C.2     1  UNL1       -0.0612
      8 C           0.4994    0.4427    0.1691 C.2     1  UNL1       -0.0617
      9 C          -0.4803   -0.4315   -0.1065 C.2     1  UNL1       -0.0617
     10 C          -1.8828   -0.1171    0.0597 C.2     1  UNL1       -0.0612
     11 C          -2.8605   -0.9915   -0.2254 C.2     1  UNL1       -0.0546
     12 C          -4.2919   -0.6973   -0.0724 C.ar    1  UNL1       -0.0246
     13 C          -5.1895   -1.1898   -1.0308 C.ar    1  UNL1       -0.0482
     14 C          -6.5633   -0.9567   -0.9104 C.ar    1  UNL1        0.0161
     15 C          -7.0459   -0.2332    0.1866 C.ar    1  UNL1        0.2732
     16 N          -8.4869    0.0140    0.3196 N.pl3   1  UNL1        0.0796
     17 O          -8.8723    0.6651    1.3013 O.co2   1  UNL1       -0.5760
     18 O          -9.2339   -0.4430   -0.5575 O.2     1  UNL1        0.0414
     19 C          -6.1648    0.2512    1.1606 C.ar    1  UNL1        0.0161
     20 C          -4.7929    0.0123    1.0290 C.ar    1  UNL1       -0.0482
     21 C           4.8145   -0.0069   -0.9583 C.ar    1  UNL1       -0.0529
     22 C           6.1891   -0.2395   -1.0850 C.ar    1  UNL1       -0.0405
     23 H           8.7213   -0.7289   -0.8674 H       1  UNL1        0.1423
     24 H           9.0019    0.1290    0.5565 H       1  UNL1        0.1423
     25 H           7.2693    1.4124    1.6695 H       1  UNL1        0.0636
     26 H           4.8627    1.8108    1.9126 H       1  UNL1        0.0624
     27 H           2.6443    1.9897    0.6772 H       1  UNL1        0.0623
     28 H           2.1458   -0.8684   -0.3590 H       1  UNL1        0.0618
     29 H           0.2552    1.4385    0.5339 H       1  UNL1        0.0618
     30 H          -0.2339   -1.4268   -0.4714 H       1  UNL1        0.0618
     31 H          -2.1242    0.8804    0.4210 H       1  UNL1        0.0618
     32 H          -2.6216   -1.9790   -0.6141 H       1  UNL1        0.0623
     33 H          -4.8238   -1.7529   -1.8880 H       1  UNL1        0.0626
     34 H          -7.2350   -1.3438   -1.6739 H       1  UNL1        0.0685
     35 H          -6.5246    0.8068    2.0242 H       1  UNL1        0.0685
     36 H          -4.1208    0.3773    1.8033 H       1  UNL1        0.0626
     37 H           4.1494   -0.3686   -1.7384 H       1  UNL1        0.0624
     38 H           6.5546   -0.7699   -1.9601 H       1  UNL1        0.0636
@<TRIPOS>UNITY_ATOM_ATTR
16 1
charge 1
17 1
charge -1
@<TRIPOS>BOND
     1     1     2    1
     2     2     3   ar
     3     3     4   ar
     4     4     5   ar
     5     5     6    1
     6     6     7    2
     7     7     8    1
     8     8     9    2
     9     9    10    1
    10    10    11    2
    11    11    12    1
    12    12    13   ar
    13    13    14   ar
    14    14    15   ar
    15    15    16    1
    16    16    17    1
    17    16    18    2
    18    15    19   ar
    19    19    20   ar
    20     5    21   ar
    21    21    22   ar
    22    22     2   ar
    23    20    12   ar
    24     1    23    1
    25     1    24    1
    26     3    25    1
    27     4    26    1
    28     6    27    1
    29     7    28    1
    30     8    29    1
    31     9    30    1
    32    10    31    1
    33    11    32    1
    34    13    33    1
    35    14    34    1
    36    19    35    1
    37    20    36    1
    38    21    37    1
    39    22    38    1
