@<TRIPOS>MOLECULE
*****
 34 35 0 0 0
SMALL
GASTEIGER

@<TRIPOS>ATOM
      1 N           7.2647   -0.1978    0.1768 N.pl3   1  UNL1       -0.3580
      2 C           5.9021    0.0699    0.0065 C.ar    1  UNL1        0.0246
      3 C           5.0500   -0.9098   -0.5053 C.ar    1  UNL1       -0.0405
      4 C           3.6680   -0.6959   -0.5690 C.ar    1  UNL1       -0.0529
      5 C           3.1077    0.4853   -0.0713 C.ar    1  UNL1       -0.0249
      6 C           1.6668    0.7636   -0.1436 C.2     1  UNL1       -0.0546
      7 C           0.7156   -0.1556    0.0842 C.2     1  UNL1       -0.0612
      8 C          -0.6975    0.1473    0.0136 C.2     1  UNL1       -0.0612
      9 C          -1.6480   -0.7724    0.2429 C.2     1  UNL1       -0.0546
     10 C          -3.0892   -0.4958    0.1719 C.ar    1  UNL1       -0.0246
     11 C          -3.6458    0.6897    0.6745 C.ar    1  UNL1       -0.0482
     12 C          -5.0258    0.9109    0.6180 C.ar    1  UNL1        0.0161
     13 C          -5.8590   -0.0675    0.0629 C.ar    1  UNL1        0.2732
     14 N          -7.3082    0.1590    0.0009 N.pl3   1  UNL1        0.0796
     15 O          -7.7434    1.2333    0.4397 O.co2   1  UNL1       -0.5760
     16 O          -8.0117   -0.7373   -0.4868 O.2     1  UNL1        0.0414
     17 C          -5.3208   -1.2627   -0.4286 C.ar    1  UNL1        0.0161
     18 C          -3.9394   -1.4727   -0.3660 C.ar    1  UNL1       -0.0482
     19 C           3.9581    1.4484    0.4817 C.ar    1  UNL1       -0.0529
     20 C           5.3389    1.2284    0.5436 C.ar    1  UNL1       -0.0405
     21 H           7.6376   -0.8678   -0.4884 H       1  UNL1        0.1423
     22 H           7.8407    0.6348    0.2495 H       1  UNL1        0.1423
     23 H           5.4540   -1.8513   -0.8674 H       1  UNL1        0.0636
     24 H           3.0402   -1.4655   -1.0107 H       1  UNL1        0.0624
     25 H           1.4000    1.7914   -0.3785 H       1  UNL1        0.0623
     26 H           0.9912   -1.1747    0.3475 H       1  UNL1        0.0618
     27 H          -0.9698    1.1672   -0.2498 H       1  UNL1        0.0618
     28 H          -1.3764   -1.7991    0.4787 H       1  UNL1        0.0623
     29 H          -3.0113    1.4497    1.1266 H       1  UNL1        0.0626
     30 H          -5.4291    1.8409    1.0134 H       1  UNL1        0.0685
     31 H          -5.9548   -2.0351   -0.8589 H       1  UNL1        0.0685
     32 H          -3.5303   -2.4053   -0.7512 H       1  UNL1        0.0626
     33 H           3.5541    2.3709    0.8920 H       1  UNL1        0.0624
     34 H           5.9707    1.9757    1.0160 H       1  UNL1        0.0636
@<TRIPOS>UNITY_ATOM_ATTR
14 1
charge 1
15 1
charge -1
@<TRIPOS>BOND
     1     1     2    1
     2     2     3   ar
     3     3     4   ar
     4     4     5   ar
     5     5     6    1
     6     6     7    2
     7     7     8    1
     8     8     9    2
     9     9    10    1
    10    10    11   ar
    11    11    12   ar
    12    12    13   ar
    13    13    14    1
    14    14    15    1
    15    14    16    2
    16    13    17   ar
    17    17    18   ar
    18     5    19   ar
    19    19    20   ar
    20    20     2   ar
    21    18    10   ar
    22     1    21    1
    23     1    22    1
    24     3    23    1
    25     4    24    1
    26     6    25    1
    27     7    26    1
    28     8    27    1
    29     9    28    1
    30    11    29    1
    31    12    30    1
    32    17    31    1
    33    18    32    1
    34    19    33    1
    35    20    34    1
