@<TRIPOS>MOLECULE
*****
 42 48 0 0 0
SMALL
GASTEIGER

@<TRIPOS>ATOM
      1 SI          5.4233    1.1746    0.9853 Si      1  UNL1        0.0000
      2 C           7.3050    0.8483    0.8381 C.2     1  UNL1        0.0000
      3 C           7.5598   -0.1917    0.0141 C.2     1  UNL1        0.0000
      4 C           6.3991   -0.8044   -0.5558 C.ar    1  UNL1        0.0000
      5 C           6.2810   -1.8679   -1.4082 C.ar    1  UNL1        0.0000
      6 S           4.6194   -2.1808   -1.7636 S.2     1  UNL1        0.0000
      7 C           4.0579   -0.8795   -0.7676 C.ar    1  UNL1        0.0000
      8 C           5.1352   -0.2574   -0.2055 C.ar    1  UNL1        0.0000
      9 C           2.6614   -0.5671   -0.6400 C.ar    1  UNL1        0.0000
     10 C           2.0619    0.6512   -0.8809 C.ar    1  UNL1        0.0000
     11 C           0.6483    0.6420   -0.6376 C.ar    1  UNL1        0.0000
     12 C          -0.3152    1.6662   -0.7400 C.ar    1  UNL1        0.0000
     13 C          -1.6710    1.4305   -0.4422 C.ar    1  UNL1        0.0000
     14 C          -2.5573    2.5059   -0.5098 C.ar    1  UNL1        0.0000
     15 C          -3.9045    2.3589   -0.1897 C.ar    1  UNL1        0.0000
     16 C          -4.4421    1.1235    0.1621 C.ar    1  UNL1        0.0000
     17 C          -5.8443    1.0958    0.4732 C.ar    1  UNL1        0.0000
     18 C          -6.5757   -0.0517    0.8157 C.ar    1  UNL1        0.0000
     19 C          -5.7781   -1.1834    0.7701 C.ar    1  UNL1        0.0000
     20 C          -6.3162   -2.4238    1.0124 C.ar    1  UNL1        0.0000
     21 S          -5.1467   -3.6537    0.8089 S.2     1  UNL1        0.0000
     22 C          -3.9291   -2.5118    0.3892 C.ar    1  UNL1        0.0000
     23 C          -4.3605   -1.2057    0.4635 C.ar    1  UNL1        0.0000
     24 C          -3.5670   -0.0269    0.1830 C.ar    1  UNL1        0.0000
     25 C          -2.1349    0.1498   -0.0644 C.ar    1  UNL1        0.0000
     26 C          -1.1439   -0.8538    0.0789 C.ar    1  UNL1        0.0000
     27 C           0.2150   -0.6073   -0.2157 C.ar    1  UNL1        0.0000
     28 S           1.5215   -1.7229   -0.1106 S.2     1  UNL1        0.0000
     29 H           5.0698    2.5014    0.4197 H       1  UNL1        0.0000
     30 H           4.9546    0.9263    2.3708 H       1  UNL1        0.0000
     31 H           8.0158    1.4547    1.3758 H       1  UNL1        0.0000
     32 H           8.5614   -0.5441   -0.2042 H       1  UNL1        0.0000
     33 H           7.0556   -2.4833   -1.8436 H       1  UNL1        0.0000
     34 H           2.6055    1.5222   -1.2264 H       1  UNL1        0.0000
     35 H           0.0138    2.6573   -1.0457 H       1  UNL1        0.0000
     36 H          -2.2035    3.4964   -0.7922 H       1  UNL1        0.0000
     37 H          -4.5356    3.2455   -0.2344 H       1  UNL1        0.0000
     38 H          -6.4037    2.0338    0.4442 H       1  UNL1        0.0000
     39 H          -7.6333   -0.0293    1.0411 H       1  UNL1        0.0000
     40 H          -7.3326   -2.6829    1.2755 H       1  UNL1        0.0000
     41 H          -2.9802   -2.9223    0.0929 H       1  UNL1        0.0000
     42 H          -1.3900   -1.8325    0.4634 H       1  UNL1        0.0000
@<TRIPOS>BOND
     1     1     2    1
     2     2     3    2
     3     3     4    1
     4     4     5   ar
     5     5     6   ar
     6     6     7   ar
     7     7     8   ar
     8     7     9    1
     9     9    10   ar
    10    10    11   ar
    11    11    12   ar
    12    12    13   ar
    13    13    14   ar
    14    14    15   ar
    15    15    16   ar
    16    16    17   ar
    17    17    18   ar
    18    18    19   ar
    19    19    20   ar
    20    20    21   ar
    21    21    22   ar
    22    22    23   ar
    23    23    24   ar
    24    24    25   ar
    25    25    26   ar
    26    26    27   ar
    27    27    28   ar
    28     8     1    1
    29    28     9   ar
    30     8     4   ar
    31    27    11   ar
    32    25    13   ar
    33    24    16   ar
    34    23    19   ar
    35     1    29    1
    36     1    30    1
    37     2    31    1
    38     3    32    1
    39     5    33    1
    40    10    34    1
    41    12    35    1
    42    14    36    1
    43    15    37    1
    44    17    38    1
    45    18    39    1
    46    20    40    1
    47    22    41    1
    48    26    42    1
