@<TRIPOS>MOLECULE
*****
 30 31 0 0 0
SMALL
GASTEIGER

@<TRIPOS>ATOM
      1 N          -6.1102    0.3180   -0.2654 N.pl3   1  UNL1       -0.3580
      2 C          -4.7160    0.2733   -0.1581 C.ar    1  UNL1        0.0246
      3 C          -3.9524   -0.3451   -1.1492 C.ar    1  UNL1       -0.0405
      4 C          -2.5539   -0.2939   -1.1135 C.ar    1  UNL1       -0.0529
      5 C          -1.8931    0.4070   -0.0990 C.ar    1  UNL1       -0.0249
      6 C          -0.4284    0.5146   -0.0420 C.2     1  UNL1       -0.0540
      7 C           0.4053   -0.4973   -0.3332 C.2     1  UNL1       -0.0540
      8 C           1.8698   -0.3916   -0.2766 C.ar    1  UNL1       -0.0246
      9 C           2.5284    0.3076    0.7456 C.ar    1  UNL1       -0.0482
     10 C           3.9255    0.3649    0.7866 C.ar    1  UNL1        0.0161
     11 C           4.6719   -0.2924   -0.1985 C.ar    1  UNL1        0.2732
     12 N           6.1384   -0.2364   -0.1603 N.pl3   1  UNL1        0.0796
     13 O           6.7619   -0.8405   -1.0449 O.co2   1  UNL1       -0.5760
     14 O           6.6674    0.4115    0.7543 O.2     1  UNL1        0.0414
     15 C           4.0301   -1.0076   -1.2164 C.ar    1  UNL1        0.0161
     16 C           2.6327   -1.0581   -1.2464 C.ar    1  UNL1       -0.0482
     17 C          -2.6610    1.0906    0.8495 C.ar    1  UNL1       -0.0529
     18 C          -4.0591    1.0351    0.8091 C.ar    1  UNL1       -0.0405
     19 H          -6.5837    0.4978    0.6143 H       1  UNL1        0.1423
     20 H          -6.5088   -0.4722   -0.7625 H       1  UNL1        0.1423
     21 H          -4.4392   -0.8711   -1.9660 H       1  UNL1        0.0636
     22 H          -1.9937   -0.7874   -1.9035 H       1  UNL1        0.0624
     23 H          -0.0454    1.4850    0.2645 H       1  UNL1        0.0624
     24 H           0.0175   -1.4660   -0.6400 H       1  UNL1        0.0624
     25 H           1.9607    0.8065    1.5285 H       1  UNL1        0.0626
     26 H           4.4090    0.9169    1.5899 H       1  UNL1        0.0685
     27 H           4.5954   -1.5276   -1.9870 H       1  UNL1        0.0685
     28 H           2.1427   -1.6166   -2.0423 H       1  UNL1        0.0626
     29 H          -2.1819    1.6786    1.6287 H       1  UNL1        0.0624
     30 H          -4.6299    1.5963    1.5440 H       1  UNL1        0.0636
@<TRIPOS>UNITY_ATOM_ATTR
12 1
charge 1
13 1
charge -1
@<TRIPOS>BOND
     1     1     2    1
     2     2     3   ar
     3     3     4   ar
     4     4     5   ar
     5     5     6    1
     6     6     7    2
     7     7     8    1
     8     8     9   ar
     9     9    10   ar
    10    10    11   ar
    11    11    12    1
    12    12    13    1
    13    12    14    2
    14    11    15   ar
    15    15    16   ar
    16     5    17   ar
    17    17    18   ar
    18    18     2   ar
    19    16     8   ar
    20     1    19    1
    21     1    20    1
    22     3    21    1
    23     4    22    1
    24     6    23    1
    25     7    24    1
    26     9    25    1
    27    10    26    1
    28    15    27    1
    29    16    28    1
    30    17    29    1
    31    18    30    1
