@<TRIPOS>MOLECULE
*****
 16 16 0 0 0
SMALL
GASTEIGER

@<TRIPOS>ATOM
      1 N           2.8127    0.2337    0.1724 N.pl3   1  UNL1       -0.3580
      2 C           1.4314    0.0854    0.0197 C.ar    1  UNL1        0.0250
      3 C           0.6638    1.1391   -0.4876 C.ar    1  UNL1       -0.0346
      4 C          -0.7314    1.0539   -0.5325 C.ar    1  UNL1        0.0173
      5 C          -1.3670   -0.0840   -0.0238 C.ar    1  UNL1        0.2733
      6 N          -2.8310   -0.1810   -0.0635 N.pl3   1  UNL1        0.0796
      7 O          -3.3545   -1.2028    0.4036 O.co2   1  UNL1       -0.5760
      8 O          -3.4585    0.7631   -0.5648 O.2     1  UNL1        0.0414
      9 C          -0.6163   -1.1219    0.5393 C.ar    1  UNL1        0.0173
     10 C           0.7780   -1.0195    0.5756 C.ar    1  UNL1       -0.0346
     11 H           3.2417    0.8690   -0.4936 H       1  UNL1        0.1423
     12 H           3.3217   -0.6416    0.2505 H       1  UNL1        0.1423
     13 H           1.1494    2.0408   -0.8539 H       1  UNL1        0.0638
     14 H          -1.2994    1.8824   -0.9501 H       1  UNL1        0.0686
     15 H          -1.0939   -2.0024    0.9635 H       1  UNL1        0.0686
     16 H           1.3533   -1.8143    1.0450 H       1  UNL1        0.0638
@<TRIPOS>UNITY_ATOM_ATTR
6 1
charge 1
7 1
charge -1
@<TRIPOS>BOND
     1     1     2    1
     2     2     3   ar
     3     3     4   ar
     4     4     5   ar
     5     5     6    1
     6     6     7    1
     7     6     8    2
     8     5     9   ar
     9     9    10   ar
    10    10     2   ar
    11     1    11    1
    12     1    12    1
    13     3    13    1
    14     4    14    1
    15     9    15    1
    16    10    16    1
