@<TRIPOS>MOLECULE
*****
 25 26 0 0 0
SMALL
GASTEIGER

@<TRIPOS>ATOM
      1 N          -4.3962   -1.8595   -0.0614 N.pl3   1  UNL1       -0.3580
      2 C          -3.1201   -1.2894   -0.1188 C.ar    1  UNL1        0.0246
      3 C          -2.0049   -2.0831   -0.3871 C.ar    1  UNL1       -0.0405
      4 C          -0.7131   -1.5463   -0.3302 C.ar    1  UNL1       -0.0523
      5 C          -0.5006   -0.2102    0.0406 C.ar    1  UNL1       -0.0178
      6 C           0.8573    0.3543    0.1035 C.ar    1  UNL1       -0.0174
      7 C           1.3283    0.9759    1.2755 C.ar    1  UNL1       -0.0468
      8 C           2.6168    1.5124    1.3392 C.ar    1  UNL1        0.0251
      9 C           3.4412    1.4274    0.2216 C.ar    1  UNL1        0.2914
     10 N           4.7218    1.9595    0.2800 N.1     1  UNL1       -0.2670
     11 C           5.8031    2.4089    0.3289 C.2     1  UNL1       -0.2278
     12 C           3.0091    0.8202   -0.9533 C.ar    1  UNL1        0.0251
     13 C           1.7193    0.2856   -1.0074 C.ar    1  UNL1       -0.0468
     14 C          -1.6244    0.5629    0.3678 C.ar    1  UNL1       -0.0523
     15 C          -2.9146    0.0225    0.3081 C.ar    1  UNL1       -0.0405
     16 H          -5.1507   -1.1896   -0.1720 H       1  UNL1        0.1423
     17 H          -4.5109   -2.6711   -0.6602 H       1  UNL1        0.1423
     18 H          -2.1284   -3.1321   -0.6426 H       1  UNL1        0.0636
     19 H           0.1322   -2.1936   -0.5547 H       1  UNL1        0.0624
     20 H           0.6901    1.0333    2.1559 H       1  UNL1        0.0626
     21 H           2.9676    1.9859    2.2520 H       1  UNL1        0.0694
     22 H           3.6618    0.7629   -1.8199 H       1  UNL1        0.0694
     23 H           1.3804   -0.1792   -1.9319 H       1  UNL1        0.0626
     24 H          -1.5062    1.5998    0.6755 H       1  UNL1        0.0624
     25 H          -3.7590    0.6426    0.5971 H       1  UNL1        0.0636
@<TRIPOS>UNITY_ATOM_ATTR
10 1
charge 1
11 1
charge -1
@<TRIPOS>BOND
     1     1     2    1
     2     2     3   ar
     3     3     4   ar
     4     4     5   ar
     5     5     6    1
     6     6     7   ar
     7     7     8   ar
     8     8     9   ar
     9     9    10    1
    10    10    11    3
    11     9    12   ar
    12    12    13   ar
    13     5    14   ar
    14    14    15   ar
    15    15     2   ar
    16    13     6   ar
    17     1    16    1
    18     1    17    1
    19     3    18    1
    20     4    19    1
    21     7    20    1
    22     8    21    1
    23    12    22    1
    24    13    23    1
    25    14    24    1
    26    15    25    1
