@<TRIPOS>MOLECULE
*****
 26 27 0 0 0
SMALL
GASTEIGER

@<TRIPOS>ATOM
      1 N          -4.9436    0.5744    0.2206 N.pl3   1  UNL1       -0.3580
      2 C          -3.5669    0.3279    0.2078 C.ar    1  UNL1        0.0246
      3 C          -2.7514    0.8308    1.2214 C.ar    1  UNL1       -0.0405
      4 C          -1.3596    0.6933    1.1562 C.ar    1  UNL1       -0.0523
      5 C          -0.7439    0.0843    0.0527 C.ar    1  UNL1       -0.0178
      6 C           0.7191   -0.0606   -0.0199 C.ar    1  UNL1       -0.0175
      7 C           1.3089   -1.3152   -0.2574 C.ar    1  UNL1       -0.0476
      8 C           2.6985   -1.4610   -0.3275 C.ar    1  UNL1        0.0162
      9 C           3.5178   -0.3394   -0.1596 C.ar    1  UNL1        0.2732
     10 N           4.9768   -0.4849   -0.2321 N.pl3   1  UNL1        0.0796
     11 O           5.6671    0.5301   -0.0608 O.co2   1  UNL1       -0.5760
     12 O           5.4332   -1.6145   -0.4601 O.2     1  UNL1        0.0414
     13 C           2.9560    0.9199    0.0768 C.ar    1  UNL1        0.0162
     14 C           1.5649    1.0511    0.1453 C.ar    1  UNL1       -0.0476
     15 C          -1.5689   -0.3650   -0.9891 C.ar    1  UNL1       -0.0523
     16 C          -2.9602   -0.2242   -0.9203 C.ar    1  UNL1       -0.0405
     17 H          -5.3346    0.6759    1.1519 H       1  UNL1        0.1423
     18 H          -5.4816   -0.0655   -0.3552 H       1  UNL1        0.1423
     19 H          -3.1913    1.3344    2.0782 H       1  UNL1        0.0636
     20 H          -0.7590    1.0707    1.9812 H       1  UNL1        0.0624
     21 H           0.6814   -2.1973   -0.3787 H       1  UNL1        0.0626
     22 H           3.1185   -2.4482   -0.5093 H       1  UNL1        0.0685
     23 H           3.5778    1.8034    0.2060 H       1  UNL1        0.0685
     24 H           1.1384    2.0386    0.3176 H       1  UNL1        0.0626
     25 H          -1.1326   -0.8085   -1.8818 H       1  UNL1        0.0624
     26 H          -3.5648   -0.5504   -1.7623 H       1  UNL1        0.0636
@<TRIPOS>UNITY_ATOM_ATTR
10 1
charge 1
11 1
charge -1
@<TRIPOS>BOND
     1     1     2    1
     2     2     3   ar
     3     3     4   ar
     4     4     5   ar
     5     5     6    1
     6     6     7   ar
     7     7     8   ar
     8     8     9   ar
     9     9    10    1
    10    10    11    1
    11    10    12    2
    12     9    13   ar
    13    13    14   ar
    14     5    15   ar
    15    15    16   ar
    16    16     2   ar
    17    14     6   ar
    18     1    17    1
    19     1    18    1
    20     3    19    1
    21     4    20    1
    22     7    21    1
    23     8    22    1
    24    13    23    1
    25    14    24    1
    26    15    25    1
    27    16    26    1
