@<TRIPOS>MOLECULE
*****
 36 38 0 0 0
SMALL
GASTEIGER

@<TRIPOS>ATOM
      1 N          -7.1299   -0.0553    0.3171 N.pl3   1  UNL1       -0.3580
      2 C          -5.7392    0.0506    0.2087 C.ar    1  UNL1        0.0246
      3 C          -5.0765   -0.4773   -0.8994 C.ar    1  UNL1       -0.0405
      4 C          -3.6778   -0.4831   -0.9621 C.ar    1  UNL1       -0.0523
      5 C          -2.9037    0.0024    0.1023 C.ar    1  UNL1       -0.0178
      6 C          -1.4333   -0.0034    0.0402 C.ar    1  UNL1       -0.0178
      7 C          -0.7244   -1.1759   -0.2588 C.ar    1  UNL1       -0.0535
      8 C           0.6749   -1.1811   -0.3162 C.ar    1  UNL1       -0.0535
      9 C           1.4139   -0.0130   -0.0789 C.ar    1  UNL1       -0.0178
     10 C           2.8847   -0.0180   -0.1402 C.ar    1  UNL1       -0.0175
     11 C           3.6362   -0.9329    0.6192 C.ar    1  UNL1       -0.0476
     12 C           5.0341   -0.9429    0.5661 C.ar    1  UNL1        0.0162
     13 C           5.6984   -0.0276   -0.2575 C.ar    1  UNL1        0.2732
     14 N           7.1651   -0.0325   -0.3186 N.pl3   1  UNL1        0.0796
     15 O           7.7148    0.8048   -1.0486 O.co2   1  UNL1       -0.5760
     16 O           7.7681   -0.8735    0.3635 O.2     1  UNL1        0.0414
     17 C           4.9741    0.8925   -1.0232 C.ar    1  UNL1        0.0162
     18 C           3.5765    0.8919   -0.9598 C.ar    1  UNL1       -0.0476
     19 C           0.7052    1.1600    0.2192 C.ar    1  UNL1       -0.0535
     20 C          -0.6940    1.1642    0.2790 C.ar    1  UNL1       -0.0535
     21 C          -3.5791    0.4760    1.2370 C.ar    1  UNL1       -0.0523
     22 C          -4.9779    0.4787    1.2963 C.ar    1  UNL1       -0.0405
     23 H          -7.5420    0.6052    0.9685 H       1  UNL1        0.1423
     24 H          -7.6112   -0.0665   -0.5765 H       1  UNL1        0.1423
     25 H          -5.6423   -0.8884   -1.7310 H       1  UNL1        0.0636
     26 H          -3.1960   -0.8740   -1.8558 H       1  UNL1        0.0624
     27 H          -1.2598   -2.1060   -0.4407 H       1  UNL1        0.0624
     28 H           1.1832   -2.1122   -0.5590 H       1  UNL1        0.0624
     29 H           3.1305   -1.6426    1.2729 H       1  UNL1        0.0626
     30 H           5.5814   -1.6631    1.1707 H       1  UNL1        0.0685
     31 H           5.4741    1.6091   -1.6715 H       1  UNL1        0.0685
     32 H           3.0231    1.6052   -1.5694 H       1  UNL1        0.0626
     33 H           1.2385    2.0873    0.4192 H       1  UNL1        0.0624
     34 H          -1.2061    2.0973    0.5064 H       1  UNL1        0.0624
     35 H          -3.0180    0.8253    2.1012 H       1  UNL1        0.0624
     36 H          -5.4655    0.8188    2.2059 H       1  UNL1        0.0636
@<TRIPOS>UNITY_ATOM_ATTR
14 1
charge 1
15 1
charge -1
@<TRIPOS>BOND
     1     1     2    1
     2     2     3   ar
     3     3     4   ar
     4     4     5   ar
     5     5     6    1
     6     6     7   ar
     7     7     8   ar
     8     8     9   ar
     9     9    10    1
    10    10    11   ar
    11    11    12   ar
    12    12    13   ar
    13    13    14    1
    14    14    15    1
    15    14    16    2
    16    13    17   ar
    17    17    18   ar
    18     9    19   ar
    19    19    20   ar
    20     5    21   ar
    21    21    22   ar
    22    22     2   ar
    23    20     6   ar
    24    18    10   ar
    25     1    23    1
    26     1    24    1
    27     3    25    1
    28     4    26    1
    29     7    27    1
    30     8    28    1
    31    11    29    1
    32    12    30    1
    33    17    31    1
    34    18    32    1
    35    19    33    1
    36    20    34    1
    37    21    35    1
    38    22    36    1
