@<TRIPOS>MOLECULE
*****
 26 27 0 0 0
SMALL
GASTEIGER

@<TRIPOS>ATOM
      1 N          -4.9643    0.0457    0.4011 N.pl3   1  UNL1       -0.3580
      2 C          -3.5657    0.0441    0.4431 C.ar    1  UNL1        0.0246
      3 C          -2.8537    1.2291    0.2575 C.ar    1  UNL1       -0.0405
      4 C          -1.4558    1.2202    0.1798 C.ar    1  UNL1       -0.0523
      5 C          -0.7350    0.0186    0.2441 C.ar    1  UNL1       -0.0178
      6 C           0.7344    0.0047    0.1623 C.ar    1  UNL1       -0.0178
      7 C           1.4104    0.6418   -0.8889 C.ar    1  UNL1       -0.0523
      8 C           2.8085    0.6268   -0.9628 C.ar    1  UNL1       -0.0405
      9 C           3.5661   -0.0591   -0.0135 C.ar    1  UNL1        0.0246
     10 N           4.9625    0.0288   -0.0258 N.pl3   1  UNL1       -0.3580
     11 C           2.9060   -0.6429    1.0677 C.ar    1  UNL1       -0.0405
     12 C           1.5080   -0.6313    1.1445 C.ar    1  UNL1       -0.0523
     13 C          -1.4640   -1.1732    0.3707 C.ar    1  UNL1       -0.0523
     14 C          -2.8621   -1.1603    0.4466 C.ar    1  UNL1       -0.0405
     15 H          -5.3878   -0.7633    0.8443 H       1  UNL1        0.1423
     16 H          -5.3815    0.9176    0.7113 H       1  UNL1        0.1423
     17 H          -3.3791    2.1766    0.1751 H       1  UNL1        0.0636
     18 H          -0.9317    2.1671    0.0677 H       1  UNL1        0.0624
     19 H           0.8506    1.1594   -1.6651 H       1  UNL1        0.0624
     20 H           3.2979    1.1558   -1.7761 H       1  UNL1        0.0636
     21 H           5.4240   -0.7223    0.4774 H       1  UNL1        0.1423
     22 H           5.3550    0.1708   -0.9510 H       1  UNL1        0.1423
     23 H           3.4729   -1.1139    1.8661 H       1  UNL1        0.0636
     24 H           1.0261   -1.1047    1.9974 H       1  UNL1        0.0624
     25 H          -0.9473   -2.1306    0.3856 H       1  UNL1        0.0624
     26 H          -3.3944   -2.1055    0.5073 H       1  UNL1        0.0636
@<TRIPOS>BOND
     1     1     2    1
     2     2     3   ar
     3     3     4   ar
     4     4     5   ar
     5     5     6    1
     6     6     7   ar
     7     7     8   ar
     8     8     9   ar
     9     9    10    1
    10     9    11   ar
    11    11    12   ar
    12     5    13   ar
    13    13    14   ar
    14    14     2   ar
    15    12     6   ar
    16     1    15    1
    17     1    16    1
    18     3    17    1
    19     4    18    1
    20     7    19    1
    21     8    20    1
    22    10    21    1
    23    10    22    1
    24    11    23    1
    25    12    24    1
    26    13    25    1
    27    14    26    1
