@<TRIPOS>MOLECULE
*****
 19 19 0 0 0
SMALL
GASTEIGER

@<TRIPOS>ATOM
      1 N           2.7209    1.5500   -0.3091 N.pl3   1  UNL1       -0.3431
      2 C           1.8547    0.5656    0.1752 C.ar    1  UNL1        0.1170
      3 C           2.3198   -0.3858    1.0783 C.ar    1  UNL1       -0.0220
      4 C           1.4452   -1.3601    1.5518 C.ar    1  UNL1       -0.0563
      5 C           0.1290   -1.3569    1.1095 C.ar    1  UNL1       -0.0291
      6 C          -0.2575   -0.3725    0.2067 C.ar    1  UNL1        0.1496
      7 C          -1.6724   -0.3623   -0.2741 C.2     1  UNL1        0.3575
      8 O          -1.8838    0.6568   -1.1456 O.3     1  UNL1       -0.4634
      9 C          -3.2157    0.7319   -1.6496 C.3     1  UNL1        0.0820
     10 O          -2.5117   -1.1769    0.0858 O.2     1  UNL1       -0.2432
     11 N           0.5878    0.5830   -0.2618 N.ar    1  UNL1       -0.2259
     12 H           3.5034    1.1163   -0.7885 H       1  UNL1        0.1437
     13 H           3.0854    2.0995    0.4626 H       1  UNL1        0.1437
     14 H           3.3512   -0.3754    1.4147 H       1  UNL1        0.0652
     15 H           1.7872   -2.1122    2.2571 H       1  UNL1        0.0619
     16 H          -0.5777   -2.1029    1.4596 H       1  UNL1        0.0641
     17 H          -3.9259    0.8986   -0.8336 H       1  UNL1        0.0661
     18 H          -3.2718    1.5813   -2.3359 H       1  UNL1        0.0661
     19 H          -3.4683   -0.1778   -2.2033 H       1  UNL1        0.0661
@<TRIPOS>BOND
     1     1     2    1
     2     2     3   ar
     3     3     4   ar
     4     4     5   ar
     5     5     6   ar
     6     6     7    1
     7     7     8    1
     8     8     9    1
     9     7    10    2
    10     6    11   ar
    11    11     2   ar
    12     1    12    1
    13     1    13    1
    14     3    14    1
    15     4    15    1
    16     5    16    1
    17     9    17    1
    18     9    18    1
    19     9    19    1
