@<TRIPOS>MOLECULE
*****
 22 23 0 0 0
SMALL
GASTEIGER

@<TRIPOS>ATOM
      1 N          -2.8351    1.5050   -0.0277 N.pl3   1  UNL1       -0.3565
      2 C          -1.6497    0.7389   -0.0161 C.ar    1  UNL1        0.0461
      3 C          -0.4067    1.3784   -0.0637 C.ar    1  UNL1       -0.0315
      4 C           0.7905    0.6431   -0.0218 C.ar    1  UNL1       -0.0160
      5 C           2.0424    1.2737   -0.1128 C.ar    1  UNL1       -0.0540
      6 C           3.2218    0.5273   -0.0878 C.ar    1  UNL1       -0.0612
      7 C           3.1653   -0.8582    0.0293 C.ar    1  UNL1       -0.0612
      8 C           1.9297   -1.4998    0.1261 C.ar    1  UNL1       -0.0540
      9 C           0.7344   -0.7627    0.1053 C.ar    1  UNL1       -0.0160
     10 C          -0.5151   -1.3907    0.2234 C.ar    1  UNL1       -0.0315
     11 C          -1.6957   -0.6439    0.2442 C.ar    1  UNL1        0.0461
     12 N          -2.9344   -1.3250    0.3156 N.pl3   1  UNL1       -0.3565
     13 H          -3.6132    0.9918   -0.4273 H       1  UNL1        0.1424
     14 H          -2.7156    2.4073   -0.4783 H       1  UNL1        0.1424
     15 H          -0.3671    2.4603   -0.1597 H       1  UNL1        0.0643
     16 H           2.1075    2.3554   -0.2070 H       1  UNL1        0.0624
     17 H           4.1833    1.0287   -0.1598 H       1  UNL1        0.0618
     18 H           4.0824   -1.4410    0.0500 H       1  UNL1        0.0618
     19 H           1.9049   -2.5828    0.2252 H       1  UNL1        0.0624
     20 H          -0.5754   -2.4698    0.3431 H       1  UNL1        0.0643
     21 H          -3.6361   -0.7014    0.7101 H       1  UNL1        0.1424
     22 H          -3.2178   -1.6347   -0.6102 H       1  UNL1        0.1424
@<TRIPOS>BOND
     1     1     2    1
     2     2     3   ar
     3     3     4   ar
     4     4     5   ar
     5     5     6   ar
     6     6     7   ar
     7     7     8   ar
     8     8     9   ar
     9     9    10   ar
    10    10    11   ar
    11    11    12    1
    12    11     2   ar
    13     9     4   ar
    14     1    13    1
    15     1    14    1
    16     3    15    1
    17     5    16    1
    18     6    17    1
    19     7    18    1
    20     8    19    1
    21    10    20    1
    22    12    21    1
    23    12    22    1
