@<TRIPOS>MOLECULE
*****
 12 12 0 0 0
SMALL
GASTEIGER

@<TRIPOS>ATOM
      1 N           2.3315   -0.2757    0.2203 N.pl3   1  UNL1       -0.3275
      2 C           0.9626   -0.1277    0.1453 C.ar    1  UNL1        0.2125
      3 N           0.4589    1.0881    0.3784 N.ar    1  UNL1       -0.2231
      4 C          -0.8784    1.2115    0.2833 C.ar    1  UNL1        0.0326
      5 C          -1.7139    0.1739   -0.0488 C.ar    1  UNL1       -0.0253
      6 C          -1.0891   -1.0254   -0.2863 C.ar    1  UNL1        0.0326
      7 N           0.2435   -1.1987   -0.2039 N.ar    1  UNL1       -0.2231
      8 H           2.6180   -1.0492   -0.3624 H       1  UNL1        0.1452
      9 H           2.7750    0.6177    0.0621 H       1  UNL1        0.1452
     10 H          -1.2674    2.2041    0.4895 H       1  UNL1        0.0831
     11 H          -2.7854    0.2926   -0.1189 H       1  UNL1        0.0648
     12 H          -1.6551   -1.9112   -0.5585 H       1  UNL1        0.0831
@<TRIPOS>BOND
     1     1     2    1
     2     2     3   ar
     3     3     4   ar
     4     4     5   ar
     5     5     6   ar
     6     6     7   ar
     7     7     2   ar
     8     1     8    1
     9     1     9    1
    10     4    10    1
    11     5    11    1
    12     6    12    1
