@<TRIPOS>MOLECULE
*****
 12 12 0 0 0
SMALL
GASTEIGER

@<TRIPOS>ATOM
      1 N           2.1594   -0.3292   -0.2903 N.pl3   1  UNL1       -0.3419
      2 C           0.7937   -0.1008   -0.1379 C.ar    1  UNL1        0.1344
      3 N           0.0145   -1.1850    0.0274 N.ar    1  UNL1       -0.2377
      4 C          -1.3126   -0.9442    0.1540 C.ar    1  UNL1        0.0478
      5 C          -1.8483    0.3321    0.1193 C.ar    1  UNL1        0.0458
      6 N          -1.0811    1.4298   -0.0488 N.ar    1  UNL1       -0.2584
      7 C           0.2453    1.1804   -0.1855 C.ar    1  UNL1        0.0670
      8 H           2.7068    0.2077    0.3724 H       1  UNL1        0.1437
      9 H           2.3059   -1.3298   -0.1773 H       1  UNL1        0.1437
     10 H          -1.9413   -1.8174    0.2855 H       1  UNL1        0.0846
     11 H          -2.9131    0.5046    0.2240 H       1  UNL1        0.0845
     12 H           0.8707    2.0518   -0.3428 H       1  UNL1        0.0864
@<TRIPOS>BOND
     1     1     2    1
     2     2     3   ar
     3     3     4   ar
     4     4     5   ar
     5     5     6   ar
     6     6     7   ar
     7     7     2   ar
     8     1     8    1
     9     1     9    1
    10     4    10    1
    11     5    11    1
    12     7    12    1
