@<TRIPOS>MOLECULE
*****
 36 41 0 0 0
SMALL
GASTEIGER

@<TRIPOS>ATOM
      1 SI          0.5449   -1.2469    0.7793 Si      1  UNL1        0.0000
      2 C           2.0443   -0.3249    0.0725 C.2     1  UNL1        0.0000
      3 C           1.6504    0.7713   -0.6103 C.2     1  UNL1        0.0000
      4 C           0.1944    0.9880   -0.6455 C.ar    1  UNL1        0.0000
      5 C          -0.4429    2.0331   -1.2775 C.ar    1  UNL1        0.0000
      6 N          -1.7859    2.1856   -1.2791 N.ar    1  UNL1        0.0000
      7 C          -2.5425    1.2748   -0.6331 C.ar    1  UNL1        0.0000
      8 C          -3.9195    1.4558   -0.6505 C.ar    1  UNL1        0.0000
      9 C          -4.7862    0.5561   -0.0036 C.ar    1  UNL1        0.0000
     10 C          -6.1969    0.4743    0.1520 C.ar    1  UNL1        0.0000
     11 C          -6.4702   -0.6479    0.9003 C.ar    1  UNL1        0.0000
     12 N          -5.2776   -1.2494    1.2040 N.ar    1  UNL1        0.0000
     13 C          -4.2343   -0.5323    0.6626 C.ar    1  UNL1        0.0000
     14 C          -2.8548   -0.7599    0.7101 C.ar    1  UNL1        0.0000
     15 C          -1.9998    0.1591    0.0515 C.ar    1  UNL1        0.0000
     16 C          -0.5984    0.0382    0.0283 C.ar    1  UNL1        0.0000
     17 C           3.4033   -0.7265    0.2349 C.ar    1  UNL1        0.0000
     18 S           3.8580   -2.1770    1.1450 S.2     1  UNL1        0.0000
     19 C           5.5509   -1.9820    0.8955 C.ar    1  UNL1        0.0000
     20 C           5.7236   -0.8728    0.1618 C.ar    1  UNL1        0.0000
     21 O           6.9195   -0.3720   -0.2505 O.2     1  UNL1        0.0000
     22 C           6.4787    0.7384   -0.9406 C.ar    1  UNL1        0.0000
     23 C           5.0873    0.8951   -0.9417 C.ar    1  UNL1        0.0000
     24 C           4.5828   -0.1940   -0.1969 C.ar    1  UNL1        0.0000
     25 H           0.4989   -1.2278    2.2645 H       1  UNL1        0.0000
     26 H           0.3473   -2.5873    0.1692 H       1  UNL1        0.0000
     27 H           2.3006    1.4724   -1.1123 H       1  UNL1        0.0000
     28 H           0.1065    2.7994   -1.8148 H       1  UNL1        0.0000
     29 H          -4.3305    2.3130   -1.1770 H       1  UNL1        0.0000
     30 H          -6.9310    1.1647   -0.2426 H       1  UNL1        0.0000
     31 H          -7.4069   -1.0681    1.2412 H       1  UNL1        0.0000
     32 H          -5.1744   -2.0963    1.7461 H       1  UNL1        0.0000
     33 H          -2.4691   -1.6226    1.2420 H       1  UNL1        0.0000
     34 H           6.3019   -2.6565    1.2796 H       1  UNL1        0.0000
     35 H           7.2740    1.3261   -1.3804 H       1  UNL1        0.0000
     36 H           4.5536    1.6987   -1.4255 H       1  UNL1        0.0000
@<TRIPOS>BOND
     1     1     2    1
     2     2     3    2
     3     3     4    1
     4     4     5   ar
     5     5     6   ar
     6     6     7   ar
     7     7     8   ar
     8     8     9   ar
     9     9    10   ar
    10    10    11   ar
    11    11    12   ar
    12    12    13   ar
    13    13    14   ar
    14    14    15   ar
    15    15    16   ar
    16     2    17    1
    17    17    18   ar
    18    18    19   ar
    19    19    20   ar
    20    20    21   ar
    21    21    22   ar
    22    22    23   ar
    23    23    24   ar
    24    16     1    1
    25    24    17   ar
    26    16     4   ar
    27    24    20   ar
    28    15     7   ar
    29    13     9   ar
    30     1    25    1
    31     1    26    1
    32     3    27    1
    33     5    28    1
    34     8    29    1
    35    10    30    1
    36    11    31    1
    37    12    32    1
    38    14    33    1
    39    19    34    1
    40    22    35    1
    41    23    36    1
