@<TRIPOS>MOLECULE
*****
 47 54 0 0 0
SMALL
GASTEIGER

@<TRIPOS>ATOM
      1 SI         -4.7780    0.4039   -1.8728 Si      1  UNL1        0.0000
      2 C          -6.6625    0.7491   -1.7114 C.2     1  UNL1        0.0000
      3 C          -7.0032    1.0289   -0.4341 C.2     1  UNL1        0.0000
      4 C          -5.9158    1.0094    0.4952 C.ar    1  UNL1        0.0000
      5 C          -5.8866    1.2504    1.8418 C.ar    1  UNL1        0.0000
      6 S          -4.2765    1.0995    2.4532 S.2     1  UNL1        0.0000
      7 C          -3.6212    0.6986    0.9025 C.ar    1  UNL1        0.0000
      8 C          -4.6291    0.6988   -0.0176 C.ar    1  UNL1        0.0000
      9 C          -2.2045    0.4378    0.7595 C.ar    1  UNL1        0.0000
     10 C          -1.1834    1.3835    0.9850 C.ar    1  UNL1        0.0000
     11 C           0.2287    1.1324    0.8330 C.ar    1  UNL1        0.0000
     12 C           1.1079    2.1581    1.1939 C.ar    1  UNL1        0.0000
     13 C           2.4968    2.0143    1.1214 C.ar    1  UNL1        0.0000
     14 C           3.0748    0.8546    0.5849 C.ar    1  UNL1        0.0000
     15 C           4.5092    0.7969    0.5051 C.ar    1  UNL1        0.0000
     16 N           5.5167    1.6457    0.9299 N.ar    1  UNL1        0.0000
     17 C           6.7564    1.1366    0.5968 C.ar    1  UNL1        0.0000
     18 C           6.5802   -0.0582   -0.0700 C.ar    1  UNL1        0.0000
     19 C           5.2012   -0.2355   -0.1000 C.ar    1  UNL1        0.0000
     20 C           4.4212   -1.2447   -0.6951 C.ar    1  UNL1        0.0000
     21 C           4.8040   -2.3006   -1.4572 C.ar    1  UNL1        0.0000
     22 O           3.6602   -2.8986   -1.9145 O.2     1  UNL1        0.0000
     23 C           2.5982   -2.1864   -1.4108 C.ar    1  UNL1        0.0000
     24 C           3.0216   -1.1791   -0.5699 C.ar    1  UNL1        0.0000
     25 C           2.2280   -0.2082    0.1170 C.ar    1  UNL1        0.0000
     26 C           0.7896   -0.1099    0.3572 C.ar    1  UNL1        0.0000
     27 C          -0.2660   -1.0732    0.2522 C.ar    1  UNL1        0.0000
     28 C          -0.1530   -2.4407    0.1523 C.ar    1  UNL1        0.0000
     29 N          -1.4218   -2.9776    0.1220 N.ar    1  UNL1        0.0000
     30 C          -2.3537   -1.9858    0.3048 C.ar    1  UNL1        0.0000
     31 C          -1.6650   -0.8028    0.4325 C.ar    1  UNL1        0.0000
     32 H          -4.1392    1.4427   -2.7191 H       1  UNL1        0.0000
     33 H          -4.5586   -1.0027   -2.2957 H       1  UNL1        0.0000
     34 H          -7.3052    0.7072   -2.5755 H       1  UNL1        0.0000
     35 H          -8.0178    1.2543   -0.1266 H       1  UNL1        0.0000
     36 H          -6.6984    1.5091    2.5067 H       1  UNL1        0.0000
     37 H          -1.4970    2.3782    1.3096 H       1  UNL1        0.0000
     38 H           0.7176    3.0994    1.5804 H       1  UNL1        0.0000
     39 H           3.1071    2.8472    1.4585 H       1  UNL1        0.0000
     40 H           5.3672    2.5139    1.4237 H       1  UNL1        0.0000
     41 H           7.6548    1.6792    0.8592 H       1  UNL1        0.0000
     42 H           7.3594   -0.6901   -0.4732 H       1  UNL1        0.0000
     43 H           5.7365   -2.7213   -1.8025 H       1  UNL1        0.0000
     44 H           1.6394   -2.5137   -1.7822 H       1  UNL1        0.0000
     45 H           0.6960   -3.1075    0.1445 H       1  UNL1        0.0000
     46 H          -1.6310   -3.9655    0.0552 H       1  UNL1        0.0000
     47 H          -3.4054   -2.2277    0.3822 H       1  UNL1        0.0000
@<TRIPOS>BOND
     1     1     2    1
     2     2     3    2
     3     3     4    1
     4     4     5   ar
     5     5     6   ar
     6     6     7   ar
     7     7     8   ar
     8     7     9    1
     9     9    10   ar
    10    10    11   ar
    11    11    12   ar
    12    12    13   ar
    13    13    14   ar
    14    14    15   ar
    15    15    16   ar
    16    16    17   ar
    17    17    18   ar
    18    18    19   ar
    19    19    20   ar
    20    20    21   ar
    21    21    22   ar
    22    22    23   ar
    23    23    24   ar
    24    24    25   ar
    25    25    26   ar
    26    26    27   ar
    27    27    28   ar
    28    28    29   ar
    29    29    30   ar
    30    30    31   ar
    31     8     1    1
    32    31     9   ar
    33     8     4   ar
    34    26    11   ar
    35    31    27   ar
    36    25    14   ar
    37    19    15   ar
    38    24    20   ar
    39     1    32    1
    40     1    33    1
    41     2    34    1
    42     3    35    1
    43     5    36    1
    44    10    37    1
    45    12    38    1
    46    13    39    1
    47    16    40    1
    48    17    41    1
    49    18    42    1
    50    21    43    1
    51    23    44    1
    52    28    45    1
    53    29    46    1
    54    30    47    1
