@<TRIPOS>MOLECULE
*****
 38 39 0 0 0
SMALL
GASTEIGER

@<TRIPOS>ATOM
      1 N          -4.1742    3.4729    1.1218 N.pl3   1  UNL1       -0.3568
      2 C          -4.0568    2.1154    0.7662 C.ar    1  UNL1        0.0439
      3 C          -2.8277    1.4670    0.9453 C.ar    1  UNL1       -0.0256
      4 C          -2.6969    0.0859    0.7173 C.ar    1  UNL1        0.0608
      5 C          -1.3540   -0.5313    0.8918 C.2     1  UNL1        0.3397
      6 O          -0.3564    0.0915    1.2246 O.2     1  UNL1       -0.2449
      7 O          -1.4074   -1.8593    0.6316 O.3     1  UNL1       -0.4517
      8 C          -0.1359   -2.5029    0.6342 C.3     1  UNL1        0.1683
      9 C           0.7218   -2.1365   -0.5807 C.2     1  UNL1        0.2509
     10 O           0.2467   -1.6992   -1.6251 O.2     1  UNL1       -0.2721
     11 N           2.0703   -2.3588   -0.3997 N.am    1  UNL1       -0.3100
     12 C           3.0561   -1.9348   -1.3791 C.3     1  UNL1        0.0380
     13 C           3.7024   -0.5939   -1.0187 C.3     1  UNL1        0.0742
     14 C           2.7932    0.6259   -1.0615 C.3     1  UNL1       -0.0231
     15 C           3.5271    1.5704   -0.1392 C.3     1  UNL1       -0.0271
     16 C           4.0081    0.6256    0.9448 C.3     1  UNL1        0.0482
     17 O           4.2442   -0.6483    0.3217 O.3     1  UNL1       -0.3750
     18 C          -3.8204   -0.6621    0.3393 C.ar    1  UNL1       -0.0463
     19 C          -5.0628   -0.0387    0.2093 C.ar    1  UNL1       -0.0408
     20 C          -5.1817    1.3348    0.4375 C.ar    1  UNL1        0.0616
     21 CL         -6.7436    2.0612    0.2753 Cl      1  UNL1       -0.0816
     22 H          -5.0045    3.9114    0.7232 H       1  UNL1        0.1424
     23 H          -3.3298    4.0190    0.9854 H       1  UNL1        0.1424
     24 H          -1.9588    2.0401    1.2666 H       1  UNL1        0.0644
     25 H           0.3967   -2.2988    1.5688 H       1  UNL1        0.0796
     26 H          -0.3175   -3.5806    0.5900 H       1  UNL1        0.0796
     27 H           2.4227   -2.4676    0.5448 H       1  UNL1        0.1489
     28 H           2.6124   -1.8926   -2.3794 H       1  UNL1        0.0487
     29 H           3.8267   -2.7117   -1.3677 H       1  UNL1        0.0487
     30 H           4.5528   -0.4292   -1.6936 H       1  UNL1        0.0611
     31 H           2.6588    1.0170   -2.0730 H       1  UNL1        0.0291
     32 H           1.8052    0.4158   -0.6393 H       1  UNL1        0.0291
     33 H           4.3872    2.0105   -0.6613 H       1  UNL1        0.0288
     34 H           2.9089    2.3854    0.2499 H       1  UNL1        0.0288
     35 H           3.2410    0.4814    1.7141 H       1  UNL1        0.0560
     36 H           4.9262    0.9723    1.4279 H       1  UNL1        0.0560
     37 H          -3.7469   -1.7306    0.1516 H       1  UNL1        0.0626
     38 H          -5.9331   -0.6266   -0.0705 H       1  UNL1        0.0633
@<TRIPOS>BOND
     1     1     2    1
     2     2     3   ar
     3     3     4   ar
     4     4     5    1
     5     5     6    2
     6     5     7    1
     7     7     8    1
     8     8     9    1
     9     9    10    2
    10     9    11   am
    11    11    12    1
    12    12    13    1
    13    13    14    1
    14    14    15    1
    15    15    16    1
    16    16    17    1
    17     4    18   ar
    18    18    19   ar
    19    19    20   ar
    20    20    21    1
    21    20     2   ar
    22    17    13    1
    23     1    22    1
    24     1    23    1
    25     3    24    1
    26     8    25    1
    27     8    26    1
    28    11    27    1
    29    12    28    1
    30    12    29    1
    31    13    30    1
    32    14    31    1
    33    14    32    1
    34    15    33    1
    35    15    34    1
    36    16    35    1
    37    16    36    1
    38    18    37    1
    39    19    38    1
