@<TRIPOS>MOLECULE
*****
 29 30 0 0 0
SMALL
GASTEIGER

@<TRIPOS>ATOM
      1 N           4.5120    1.7592   -0.8111 N.pl3   1  UNL1       -0.3580
      2 C           3.4560    1.0397   -0.2402 C.ar    1  UNL1        0.0247
      3 C           2.9482   -0.0930   -0.8854 C.ar    1  UNL1       -0.0392
      4 C           1.8187   -0.7496   -0.3912 C.ar    1  UNL1       -0.0336
      5 C           1.1647   -0.2386    0.7315 C.ar    1  UNL1        0.1056
      6 S          -0.2751   -1.0747    1.3433 S.O2    1  UNL1        0.0609
      7 O           0.0493   -2.4814    1.4464 O.2     1  UNL1       -0.1528
      8 O          -0.7918   -0.3389    2.4789 O.2     1  UNL1       -0.1528
      9 N          -1.3779   -0.8806    0.0679 N.3     1  UNL1       -0.1766
     10 C          -1.7959    0.5079   -0.2692 C.3     1  UNL1        0.0205
     11 C          -3.3188    0.4827   -0.2709 C.3     1  UNL1       -0.0373
     12 C          -3.6407   -0.9537   -0.6289 C.3     1  UNL1       -0.0373
     13 C          -2.5975   -1.7225    0.1659 C.3     1  UNL1        0.0205
     14 C           1.6272    0.9188    1.3584 C.ar    1  UNL1       -0.0336
     15 C           2.7586    1.5651    0.8533 C.ar    1  UNL1       -0.0392
     16 H           5.0113    2.3485   -0.1519 H       1  UNL1        0.1423
     17 H           5.1422    1.1902   -1.3682 H       1  UNL1        0.1423
     18 H           3.4328   -0.4766   -1.7797 H       1  UNL1        0.0636
     19 H           1.4468   -1.6430   -0.8876 H       1  UNL1        0.0638
     20 H          -1.4097    0.7447   -1.2667 H       1  UNL1        0.0444
     21 H          -1.4211    1.2596    0.4304 H       1  UNL1        0.0444
     22 H          -3.7476    1.2034   -0.9727 H       1  UNL1        0.0278
     23 H          -3.6989    0.7140    0.7315 H       1  UNL1        0.0278
     24 H          -3.5002   -1.1173   -1.7040 H       1  UNL1        0.0278
     25 H          -4.6628   -1.2393   -0.3656 H       1  UNL1        0.0278
     26 H          -2.4196   -2.7139   -0.2593 H       1  UNL1        0.0444
     27 H          -2.9191   -1.8251    1.2085 H       1  UNL1        0.0444
     28 H           1.1135    1.3296    2.2241 H       1  UNL1        0.0638
     29 H           3.0955    2.4848    1.3250 H       1  UNL1        0.0636
@<TRIPOS>BOND
     1     1     2    1
     2     2     3   ar
     3     3     4   ar
     4     4     5   ar
     5     5     6    1
     6     6     7    2
     7     6     8    2
     8     6     9    1
     9     9    10    1
    10    10    11    1
    11    11    12    1
    12    12    13    1
    13     5    14   ar
    14    14    15   ar
    15    15     2   ar
    16    13     9    1
    17     1    16    1
    18     1    17    1
    19     3    18    1
    20     4    19    1
    21    10    20    1
    22    10    21    1
    23    11    22    1
    24    11    23    1
    25    12    24    1
    26    12    25    1
    27    13    26    1
    28    13    27    1
    29    14    28    1
    30    15    29    1
