@<TRIPOS>MOLECULE
*****
 32 35 0 0 0
SMALL
GASTEIGER

@<TRIPOS>ATOM
      1 N           5.6869    0.4980   -0.8820 N.pl3   1  UNL1       -0.3579
      2 C           4.5039   -0.0502   -0.3526 C.ar    1  UNL1        0.0268
      3 C           4.5950   -0.8876    0.7976 C.ar    1  UNL1       -0.0389
      4 C           3.4777   -1.4079    1.4833 C.ar    1  UNL1       -0.0307
      5 C           2.2400   -0.9953    0.9657 C.ar    1  UNL1        0.1133
      6 N           1.0055   -1.3022    1.3794 N.ar    1  UNL1       -0.1471
      7 N           0.1988   -0.6097    0.5248 N.ar    1  UNL1       -0.1486
      8 C          -1.2296   -0.6825    0.6508 C.ar    1  UNL1        0.0938
      9 C          -1.7207   -1.5047    1.6911 C.ar    1  UNL1       -0.0339
     10 C          -3.0835   -1.6544    1.9071 C.ar    1  UNL1       -0.0591
     11 C          -3.9828   -0.9864    1.0892 C.ar    1  UNL1       -0.0539
     12 C          -3.5417   -0.1601    0.0467 C.ar    1  UNL1       -0.0158
     13 C          -4.5119    0.4851   -0.7398 C.ar    1  UNL1       -0.0540
     14 C          -4.1537    1.3215   -1.7908 C.ar    1  UNL1       -0.0612
     15 C          -2.8138    1.5228   -2.0678 C.ar    1  UNL1       -0.0611
     16 C          -1.8367    0.8867   -1.2934 C.ar    1  UNL1       -0.0519
     17 C          -2.1503    0.0194   -0.2062 C.ar    1  UNL1        0.0093
     18 N           0.8365    0.1206   -0.4184 N.ar    1  UNL1       -0.1470
     19 C           2.1336   -0.0997   -0.1734 C.ar    1  UNL1        0.1149
     20 C           3.2632    0.4082   -0.8410 C.ar    1  UNL1       -0.0117
     21 H           5.6016    0.8186   -1.8424 H       1  UNL1        0.1423
     22 H           6.5126   -0.0756   -0.7392 H       1  UNL1        0.1423
     23 H           5.5833   -1.1481    1.1773 H       1  UNL1        0.0637
     24 H           3.5641   -2.0557    2.3449 H       1  UNL1        0.0641
     25 H          -1.0433   -2.0443    2.3521 H       1  UNL1        0.0639
     26 H          -3.4429   -2.2907    2.7115 H       1  UNL1        0.0618
     27 H          -5.0472   -1.1181    1.2762 H       1  UNL1        0.0624
     28 H          -5.5714    0.3396   -0.5365 H       1  UNL1        0.0624
     29 H          -4.9180    1.8115   -2.3869 H       1  UNL1        0.0618
     30 H          -2.5151    2.1742   -2.8850 H       1  UNL1        0.0618
     31 H          -0.8101    1.0978   -1.5738 H       1  UNL1        0.0624
     32 H           3.1701    1.0977   -1.6684 H       1  UNL1        0.0658
@<TRIPOS>BOND
     1     1     2    1
     2     2     3   ar
     3     3     4   ar
     4     4     5   ar
     5     5     6   ar
     6     6     7   ar
     7     7     8    1
     8     8     9   ar
     9     9    10   ar
    10    10    11   ar
    11    11    12   ar
    12    12    13   ar
    13    13    14   ar
    14    14    15   ar
    15    15    16   ar
    16    16    17   ar
    17     7    18   ar
    18    18    19   ar
    19    19    20   ar
    20    20     2   ar
    21    19     5   ar
    22    17     8   ar
    23    17    12   ar
    24     1    21    1
    25     1    22    1
    26     3    23    1
    27     4    24    1
    28     9    25    1
    29    10    26    1
    30    11    27    1
    31    13    28    1
    32    14    29    1
    33    15    30    1
    34    16    31    1
    35    20    32    1
