@<TRIPOS>MOLECULE
*****
 32 35 0 0 0
SMALL
GASTEIGER

@<TRIPOS>ATOM
      1 N          -3.0435   -1.8770   -0.3130 N.pl3   1  UNL1       -0.3575
      2 C          -3.3992   -0.6050    0.1937 C.ar    1  UNL1        0.0338
      3 C          -4.7548   -0.2423    0.1766 C.ar    1  UNL1       -0.0404
      4 C          -5.1608    1.0361    0.5566 C.ar    1  UNL1       -0.0600
      5 C          -4.2114    1.9802    0.9264 C.ar    1  UNL1       -0.0610
      6 C          -2.8547    1.6504    0.8933 C.ar    1  UNL1       -0.0508
      7 C          -2.4155    0.3669    0.5022 C.ar    1  UNL1        0.0210
      8 C          -0.9659    0.0663    0.4479 C.ar    1  UNL1        0.0747
      9 C          -0.0565    0.9508   -0.1353 C.ar    1  UNL1       -0.0117
     10 C           1.2820    0.5576   -0.1191 C.ar    1  UNL1        0.0510
     11 N           2.4039    1.1853   -0.6061 N.ar    1  UNL1       -0.3540
     12 C           3.5274    0.4310   -0.3642 C.ar    1  UNL1        0.0504
     13 C           4.8645    0.6716   -0.6730 C.ar    1  UNL1       -0.0196
     14 C           5.7451   -0.3225   -0.2744 C.ar    1  UNL1        0.0295
     15 N           5.3929   -1.4584    0.3667 N.ar    1  UNL1       -0.2625
     16 C           4.0848   -1.6699    0.6550 C.ar    1  UNL1        0.0373
     17 C           3.1136   -0.7262    0.2961 C.ar    1  UNL1        0.0269
     18 C           1.6938   -0.6464    0.4469 C.ar    1  UNL1        0.0270
     19 C           0.7212   -1.4804    1.0067 C.ar    1  UNL1        0.0380
     20 N          -0.5879   -1.1228    0.9948 N.ar    1  UNL1       -0.2542
     21 H          -2.1154   -2.1362    0.0388 H       1  UNL1        0.1423
     22 H          -3.7311   -2.5920   -0.1033 H       1  UNL1        0.1423
     23 H          -5.5056   -0.9635   -0.1358 H       1  UNL1        0.0636
     24 H          -6.2166    1.2927    0.5564 H       1  UNL1        0.0618
     25 H          -4.5225    2.9760    1.2309 H       1  UNL1        0.0618
     26 H          -2.1319    2.4089    1.1870 H       1  UNL1        0.0625
     27 H          -0.3736    1.8809   -0.5907 H       1  UNL1        0.0660
     28 H           2.4030    2.0790   -1.0769 H       1  UNL1        0.1659
     29 H           5.2007    1.5633   -1.1854 H       1  UNL1        0.0653
     30 H           6.8100   -0.2245   -0.4715 H       1  UNL1        0.0830
     31 H           3.8511   -2.5953    1.1689 H       1  UNL1        0.0836
     32 H           0.9530   -2.4343    1.4668 H       1  UNL1        0.0836
@<TRIPOS>BOND
     1     1     2    1
     2     2     3   ar
     3     3     4   ar
     4     4     5   ar
     5     5     6   ar
     6     6     7   ar
     7     7     8    1
     8     8     9   ar
     9     9    10   ar
    10    10    11   ar
    11    11    12   ar
    12    12    13   ar
    13    13    14   ar
    14    14    15   ar
    15    15    16   ar
    16    16    17   ar
    17    17    18   ar
    18    18    19   ar
    19    19    20   ar
    20     7     2   ar
    21    20     8   ar
    22    18    10   ar
    23    17    12   ar
    24     1    21    1
    25     1    22    1
    26     3    23    1
    27     4    24    1
    28     5    25    1
    29     6    26    1
    30     9    27    1
    31    11    28    1
    32    13    29    1
    33    14    30    1
    34    16    31    1
    35    19    32    1
