@<TRIPOS>MOLECULE
*****
 27 29 0 0 0
SMALL
GASTEIGER

@<TRIPOS>ATOM
      1 N           1.5603    0.6779   -2.0663 N.pl3   1  UNL1       -0.3575
      2 C           2.1421    0.1468   -0.8904 C.ar    1  UNL1        0.0338
      3 C           3.4664   -0.3102   -0.9459 C.ar    1  UNL1       -0.0404
      4 C           4.0690   -0.8989    0.1670 C.ar    1  UNL1       -0.0600
      5 C           3.3410   -1.0757    1.3388 C.ar    1  UNL1       -0.0610
      6 C           2.0008   -0.6906    1.3882 C.ar    1  UNL1       -0.0509
      7 C           1.3779   -0.1076    0.2725 C.ar    1  UNL1        0.0189
      8 C          -0.0561    0.1927    0.3453 C.ar    1  UNL1        0.0493
      9 C          -0.8214    0.7629    1.3469 C.ar    1  UNL1       -0.0272
     10 C          -2.1756    0.8011    0.9109 C.ar    1  UNL1        0.0183
     11 C          -3.3733    1.2641    1.4683 C.ar    1  UNL1        0.0367
     12 N          -4.5392    1.1573    0.7830 N.ar    1  UNL1       -0.2625
     13 C          -4.5231    0.5929   -0.4453 C.ar    1  UNL1        0.0295
     14 C          -3.3932    0.1032   -1.0837 C.ar    1  UNL1       -0.0196
     15 C          -2.2104    0.2275   -0.3589 C.ar    1  UNL1        0.0498
     16 N          -0.9252   -0.1441   -0.6699 N.ar    1  UNL1       -0.3540
     17 H           0.8521    1.3741   -1.8352 H       1  UNL1        0.1423
     18 H           2.2543    1.0738   -2.6947 H       1  UNL1        0.1423
     19 H           4.0473   -0.1968   -1.8574 H       1  UNL1        0.0636
     20 H           5.1043   -1.2257    0.1145 H       1  UNL1        0.0618
     21 H           3.8058   -1.5370    2.2061 H       1  UNL1        0.0618
     22 H           1.4332   -0.8797    2.2965 H       1  UNL1        0.0625
     23 H          -0.4445    1.1281    2.2935 H       1  UNL1        0.0645
     24 H          -3.4304    1.7208    2.4494 H       1  UNL1        0.0836
     25 H          -5.4939    0.5395   -0.9319 H       1  UNL1        0.0830
     26 H          -3.4361   -0.3421   -2.0686 H       1  UNL1        0.0653
     27 H          -0.6320   -0.5850   -1.5326 H       1  UNL1        0.1659
@<TRIPOS>BOND
     1     1     2    1
     2     2     3   ar
     3     3     4   ar
     4     4     5   ar
     5     5     6   ar
     6     6     7   ar
     7     7     8    1
     8     8     9   ar
     9     9    10   ar
    10    10    11   ar
    11    11    12   ar
    12    12    13   ar
    13    13    14   ar
    14    14    15   ar
    15    15    16   ar
    16     7     2   ar
    17    16     8   ar
    18    15    10   ar
    19     1    17    1
    20     1    18    1
    21     3    19    1
    22     4    20    1
    23     5    21    1
    24     6    22    1
    25     9    23    1
    26    11    24    1
    27    13    25    1
    28    14    26    1
    29    16    27    1
