@<TRIPOS>MOLECULE
*****
 32 34 0 0 0
SMALL
GASTEIGER

@<TRIPOS>ATOM
      1 N          -2.5786    2.4656   -0.2153 N.pl3   1  UNL1       -0.3575
      2 C          -3.2461    1.2386   -0.0354 C.ar    1  UNL1        0.0324
      3 C          -4.6486    1.2360   -0.0574 C.ar    1  UNL1       -0.0405
      4 C          -5.3688    0.0431    0.0155 C.ar    1  UNL1       -0.0600
      5 C          -4.6943   -1.1705    0.0715 C.ar    1  UNL1       -0.0611
      6 C          -3.2999   -1.1896    0.0357 C.ar    1  UNL1       -0.0522
      7 C          -2.5552    0.0042   -0.0406 C.ar    1  UNL1        0.0042
      8 C          -1.0896   -0.0757   -0.1090 C.ar    1  UNL1        0.0020
      9 C          -0.3843    0.2818   -1.2591 C.ar    1  UNL1       -0.0505
     10 C           1.0086    0.1912   -1.2841 C.ar    1  UNL1       -0.0336
     11 C           1.6937   -0.2596   -0.1545 C.ar    1  UNL1        0.0891
     12 C           3.1727   -0.3761   -0.1218 C.ar    1  UNL1        0.0891
     13 C           3.8567   -0.8429    1.0035 C.ar    1  UNL1       -0.0342
     14 C           5.2475   -0.9315    0.9783 C.ar    1  UNL1       -0.0583
     15 C           5.9311   -0.5530   -0.1680 C.ar    1  UNL1       -0.0436
     16 C           5.1920   -0.0999   -1.2454 C.ar    1  UNL1        0.0283
     17 N           3.8436   -0.0035   -1.2488 N.ar    1  UNL1       -0.2534
     18 N           1.0236   -0.6134    0.9776 N.ar    1  UNL1       -0.2528
     19 C          -0.3294   -0.5154    0.9706 C.ar    1  UNL1        0.0361
     20 H          -1.6149    2.4544    0.1087 H       1  UNL1        0.1423
     21 H          -3.0914    3.2665    0.1388 H       1  UNL1        0.1423
     22 H          -5.1937    2.1738   -0.1305 H       1  UNL1        0.0636
     23 H          -6.4553    0.0642    0.0143 H       1  UNL1        0.0618
     24 H          -5.2505   -2.1029    0.1208 H       1  UNL1        0.0618
     25 H          -2.7888   -2.1510    0.0452 H       1  UNL1        0.0624
     26 H          -0.9155    0.6349   -2.1406 H       1  UNL1        0.0625
     27 H           1.5506    0.4716   -2.1829 H       1  UNL1        0.0640
     28 H           3.3121   -1.1372    1.8961 H       1  UNL1        0.0639
     29 H           5.7869   -1.2936    1.8486 H       1  UNL1        0.0619
     30 H           7.0123   -0.6097   -0.2210 H       1  UNL1        0.0633
     31 H           5.6789    0.2084   -2.1662 H       1  UNL1        0.0830
     32 H          -0.8052   -0.8090    1.9035 H       1  UNL1        0.0836
@<TRIPOS>BOND
     1     1     2    1
     2     2     3   ar
     3     3     4   ar
     4     4     5   ar
     5     5     6   ar
     6     6     7   ar
     7     7     8    1
     8     8     9   ar
     9     9    10   ar
    10    10    11   ar
    11    11    12    1
    12    12    13   ar
    13    13    14   ar
    14    14    15   ar
    15    15    16   ar
    16    16    17   ar
    17    11    18   ar
    18    18    19   ar
    19     7     2   ar
    20    19     8   ar
    21    17    12   ar
    22     1    20    1
    23     1    21    1
    24     3    22    1
    25     4    23    1
    26     5    24    1
    27     6    25    1
    28     9    26    1
    29    10    27    1
    30    13    28    1
    31    14    29    1
    32    15    30    1
    33    16    31    1
    34    19    32    1
