@<TRIPOS>MOLECULE
*****
 32 34 0 0 0
SMALL
GASTEIGER

@<TRIPOS>ATOM
      1 N          -2.8319   -1.7183    1.0414 N.pl3   1  UNL1       -0.3575
      2 C          -3.2848   -0.4831    0.5363 C.ar    1  UNL1        0.0323
      3 C          -4.6447   -0.1677    0.6757 C.ar    1  UNL1       -0.0405
      4 C          -5.1394    1.0779    0.2872 C.ar    1  UNL1       -0.0600
      5 C          -4.2720    2.0422   -0.2114 C.ar    1  UNL1       -0.0611
      6 C          -2.9078    1.7650   -0.3033 C.ar    1  UNL1       -0.0523
      7 C          -2.3879    0.5146    0.0865 C.ar    1  UNL1        0.0028
      8 C          -0.9343    0.2906   -0.0018 C.ar    1  UNL1       -0.0161
      9 C          -0.2870    0.2403   -1.2430 C.ar    1  UNL1       -0.0534
     10 C           1.0969    0.0323   -1.3285 C.ar    1  UNL1       -0.0519
     11 C           1.8858   -0.1356   -0.1767 C.ar    1  UNL1        0.0019
     12 C           3.3440   -0.3614   -0.2428 C.ar    1  UNL1        0.0890
     13 C           3.9843   -0.9842   -1.3156 C.ar    1  UNL1        0.0535
     14 N           5.3260   -1.1890   -1.3786 N.ar    1  UNL1       -0.2596
     15 C           6.0223   -0.7478   -0.3106 C.ar    1  UNL1        0.0457
     16 C           5.4089   -0.1367    0.7670 C.ar    1  UNL1        0.0464
     17 N           4.0717    0.0648    0.8256 N.ar    1  UNL1       -0.2520
     18 C           1.2261   -0.0711    1.0638 C.ar    1  UNL1       -0.0519
     19 C          -0.1561    0.1362    1.1512 C.ar    1  UNL1       -0.0534
     20 H          -3.5246   -2.4575    0.9916 H       1  UNL1        0.1423
     21 H          -1.9366   -2.0013    0.6512 H       1  UNL1        0.1423
     22 H          -5.3330   -0.8990    1.0916 H       1  UNL1        0.0636
     23 H          -6.1989    1.2967    0.3883 H       1  UNL1        0.0618
     24 H          -4.6502    3.0167   -0.5085 H       1  UNL1        0.0618
     25 H          -2.2364    2.5423   -0.6638 H       1  UNL1        0.0624
     26 H          -0.8609    0.3648   -2.1596 H       1  UNL1        0.0624
     27 H           1.5459    0.0253   -2.3192 H       1  UNL1        0.0624
     28 H           3.4338   -1.3609   -2.1706 H       1  UNL1        0.0851
     29 H           7.0947   -0.9010   -0.3422 H       1  UNL1        0.0845
     30 H           5.9784    0.2117    1.6208 H       1  UNL1        0.0845
     31 H           1.7937   -0.1843    1.9869 H       1  UNL1        0.0624
     32 H          -0.6259    0.1777    2.1328 H       1  UNL1        0.0624
@<TRIPOS>BOND
     1     1     2    1
     2     2     3   ar
     3     3     4   ar
     4     4     5   ar
     5     5     6   ar
     6     6     7   ar
     7     7     8    1
     8     8     9   ar
     9     9    10   ar
    10    10    11   ar
    11    11    12    1
    12    12    13   ar
    13    13    14   ar
    14    14    15   ar
    15    15    16   ar
    16    16    17   ar
    17    11    18   ar
    18    18    19   ar
    19     7     2   ar
    20    19     8   ar
    21    17    12   ar
    22     1    20    1
    23     1    21    1
    24     3    22    1
    25     4    23    1
    26     5    24    1
    27     6    25    1
    28     9    26    1
    29    10    27    1
    30    13    28    1
    31    15    29    1
    32    16    30    1
    33    18    31    1
    34    19    32    1
