@<TRIPOS>MOLECULE
*****
 26 28 0 0 0
SMALL
GASTEIGER

@<TRIPOS>ATOM
      1 N          -1.2082    0.4897   -2.2836 N.pl3   1  UNL1       -0.3575
      2 C          -1.8322    0.4175   -1.0212 C.ar    1  UNL1        0.0324
      3 C          -3.2316    0.4982   -0.9659 C.ar    1  UNL1       -0.0405
      4 C          -3.9154    0.3385    0.2398 C.ar    1  UNL1       -0.0600
      5 C          -3.2103    0.0560    1.4036 C.ar    1  UNL1       -0.0611
      6 C          -1.8235   -0.0867    1.3553 C.ar    1  UNL1       -0.0523
      7 C          -1.1153    0.0661    0.1469 C.ar    1  UNL1        0.0028
      8 C           0.3450   -0.1366    0.1477 C.ar    1  UNL1       -0.0139
      9 C           0.9122   -1.2448   -0.5117 C.ar    1  UNL1       -0.0519
     10 C           2.2940   -1.4800   -0.5322 C.ar    1  UNL1       -0.0342
     11 C           3.0848   -0.5520    0.1421 C.ar    1  UNL1        0.0858
     12 N           4.4309   -0.4373    0.3460 N.ar    1  UNL1       -0.2571
     13 N           4.7382    0.6496    1.0726 N.ar    1  UNL1       -0.0673
     14 N           3.5998    1.2679    1.3631 N.ar    1  UNL1       -0.1297
     15 C           2.5727    0.5530    0.8065 C.ar    1  UNL1        0.1130
     16 C           1.1884    0.7723    0.8169 C.ar    1  UNL1       -0.0246
     17 H          -1.7090    1.0715   -2.9473 H       1  UNL1        0.1423
     18 H          -0.2254    0.7437   -2.2214 H       1  UNL1        0.1423
     19 H          -3.8021    0.6918   -1.8707 H       1  UNL1        0.0636
     20 H          -4.9984    0.4236    0.2651 H       1  UNL1        0.0618
     21 H          -3.7381   -0.0738    2.3446 H       1  UNL1        0.0618
     22 H          -1.2893   -0.3401    2.2694 H       1  UNL1        0.0624
     23 H           0.2551   -1.9463   -1.0277 H       1  UNL1        0.0624
     24 H           2.7120   -2.3389   -1.0455 H       1  UNL1        0.0639
     25 H           5.1798   -1.0409    0.0308 H       1  UNL1        0.1907
     26 H           0.7861    1.6380    1.3333 H       1  UNL1        0.0646
@<TRIPOS>BOND
     1     1     2    1
     2     2     3   ar
     3     3     4   ar
     4     4     5   ar
     5     5     6   ar
     6     6     7   ar
     7     7     8    1
     8     8     9   ar
     9     9    10   ar
    10    10    11   ar
    11    11    12   ar
    12    12    13   ar
    13    13    14   ar
    14    14    15   ar
    15    15    16   ar
    16     7     2   ar
    17    16     8   ar
    18    15    11   ar
    19     1    17    1
    20     1    18    1
    21     3    19    1
    22     4    20    1
    23     5    21    1
    24     6    22    1
    25     9    23    1
    26    10    24    1
    27    12    25    1
    28    16    26    1
