@<TRIPOS>MOLECULE
*****
 30 32 0 0 0
SMALL
GASTEIGER

@<TRIPOS>ATOM
      1 N          -2.3382   -1.8278   -0.9150 N.pl3   1  UNL1       -0.3575
      2 C          -2.6823   -0.7761   -0.0434 C.ar    1  UNL1        0.0324
      3 C          -4.0283   -0.6321    0.3248 C.ar    1  UNL1       -0.0405
      4 C          -4.4516    0.4457    1.1033 C.ar    1  UNL1       -0.0600
      5 C          -3.5394    1.4189    1.4929 C.ar    1  UNL1       -0.0611
      6 C          -2.2083    1.3217    1.0873 C.ar    1  UNL1       -0.0523
      7 C          -1.7620    0.2426    0.2987 C.ar    1  UNL1        0.0028
      8 C          -0.3519    0.2104   -0.1288 C.ar    1  UNL1       -0.0142
      9 C          -0.0077    0.3835   -1.4805 C.ar    1  UNL1       -0.0532
     10 C           1.3260    0.3493   -1.8909 C.ar    1  UNL1       -0.0484
     11 C           2.3309    0.1473   -0.9430 C.ar    1  UNL1        0.0450
     12 C           3.7575    0.1018   -1.3572 C.ar    1  UNL1        0.1894
     13 O           4.0993    0.2283   -2.5275 O.2     1  UNL1       -0.2872
     14 C           4.7745   -0.0974   -0.2951 C.ar    1  UNL1        0.0017
     15 C           4.3542   -0.2507    0.9651 C.ar    1  UNL1        0.0058
     16 N           3.0408   -0.2527    1.3488 N.ar    1  UNL1       -0.3604
     17 C           2.0187   -0.0119    0.4181 C.ar    1  UNL1        0.0507
     18 C           0.6766    0.0094    0.8109 C.ar    1  UNL1       -0.0299
     19 H          -1.3479   -2.0565   -0.8966 H       1  UNL1        0.1423
     20 H          -2.9242   -2.6500   -0.8160 H       1  UNL1        0.1423
     21 H          -4.7619   -1.3674    0.0039 H       1  UNL1        0.0636
     22 H          -5.4962    0.5300    1.3911 H       1  UNL1        0.0618
     23 H          -3.8657    2.2647    2.0922 H       1  UNL1        0.0618
     24 H          -1.5139    2.1103    1.3713 H       1  UNL1        0.0624
     25 H          -0.7898    0.5400   -2.2227 H       1  UNL1        0.0624
     26 H           1.5772    0.4778   -2.9411 H       1  UNL1        0.0625
     27 H           5.8151   -0.1042   -0.5869 H       1  UNL1        0.0670
     28 H           5.0594   -0.3897    1.7797 H       1  UNL1        0.0808
     29 H           2.8207   -0.2271    2.3376 H       1  UNL1        0.1653
     30 H           0.4183   -0.1384    1.8572 H       1  UNL1        0.0644
@<TRIPOS>BOND
     1     1     2    1
     2     2     3   ar
     3     3     4   ar
     4     4     5   ar
     5     5     6   ar
     6     6     7   ar
     7     7     8    1
     8     8     9   ar
     9     9    10   ar
    10    10    11   ar
    11    11    12   ar
    12    12    13    2
    13    12    14   ar
    14    14    15   ar
    15    15    16   ar
    16    16    17   ar
    17    17    18   ar
    18     7     2   ar
    19    18     8   ar
    20    17    11   ar
    21     1    19    1
    22     1    20    1
    23     3    21    1
    24     4    22    1
    25     5    23    1
    26     6    24    1
    27     9    25    1
    28    10    26    1
    29    14    27    1
    30    15    28    1
    31    16    29    1
    32    18    30    1
