@<TRIPOS>MOLECULE
*****
 33 36 0 0 0
SMALL
GASTEIGER

@<TRIPOS>ATOM
      1 N          -2.6927    1.8358    1.0172 N.pl3   1  UNL1       -0.3575
      2 C          -3.2745    0.7629    0.3114 C.ar    1  UNL1        0.0324
      3 C          -4.6606    0.5734    0.4147 C.ar    1  UNL1       -0.0405
      4 C          -5.2835   -0.5260   -0.1774 C.ar    1  UNL1       -0.0600
      5 C          -4.5220   -1.4744   -0.8498 C.ar    1  UNL1       -0.0611
      6 C          -3.1358   -1.3310   -0.9128 C.ar    1  UNL1       -0.0523
      7 C          -2.4877   -0.2301   -0.3187 C.ar    1  UNL1        0.0028
      8 C          -1.0168   -0.1478   -0.3864 C.ar    1  UNL1       -0.0142
      9 C          -0.3725    0.0752   -1.6122 C.ar    1  UNL1       -0.0533
     10 C           1.0244    0.1575   -1.7035 C.ar    1  UNL1       -0.0514
     11 C           1.8035    0.0122   -0.5393 C.ar    1  UNL1        0.0090
     12 C           1.1503   -0.2119    0.6746 C.ar    1  UNL1        0.0492
     13 C          -0.2440   -0.2978    0.7795 C.ar    1  UNL1       -0.0300
     14 N           2.1212   -0.3172    1.6441 N.ar    1  UNL1       -0.3390
     15 C           3.3625   -0.1678    1.0951 C.ar    1  UNL1        0.1391
     16 N           4.5127   -0.2196    1.7924 N.ar    1  UNL1       -0.2375
     17 C           5.6054   -0.0427    1.0148 C.ar    1  UNL1        0.0299
     18 C           5.5983    0.1730   -0.3575 C.ar    1  UNL1       -0.0429
     19 C           4.3759    0.2177   -1.0295 C.ar    1  UNL1       -0.0490
     20 C           3.2066    0.0396   -0.2698 C.ar    1  UNL1        0.0264
     21 H          -1.7721    2.0851    0.6627 H       1  UNL1        0.1423
     22 H          -3.3014    2.6428    1.1016 H       1  UNL1        0.1423
     23 H          -5.2684    1.2895    0.9617 H       1  UNL1        0.0636
     24 H          -6.3607   -0.6459   -0.1003 H       1  UNL1        0.0618
     25 H          -5.0010   -2.3359   -1.3072 H       1  UNL1        0.0618
     26 H          -2.5491   -2.0985   -1.4145 H       1  UNL1        0.0624
     27 H          -0.9631    0.1946   -2.5191 H       1  UNL1        0.0624
     28 H           1.4970    0.3327   -2.6654 H       1  UNL1        0.0624
     29 H          -0.7241   -0.4719    1.7395 H       1  UNL1        0.0644
     30 H           1.9608   -0.4810    2.6256 H       1  UNL1        0.1673
     31 H           6.5496   -0.0805    1.5536 H       1  UNL1        0.0830
     32 H           6.5302    0.3041   -0.8966 H       1  UNL1        0.0633
     33 H           4.3314    0.3839   -2.1002 H       1  UNL1        0.0625
@<TRIPOS>BOND
     1     1     2    1
     2     2     3   ar
     3     3     4   ar
     4     4     5   ar
     5     5     6   ar
     6     6     7   ar
     7     7     8    1
     8     8     9   ar
     9     9    10   ar
    10    10    11   ar
    11    11    12   ar
    12    12    13   ar
    13    12    14   ar
    14    14    15   ar
    15    15    16   ar
    16    16    17   ar
    17    17    18   ar
    18    18    19   ar
    19    19    20   ar
    20     7     2   ar
    21    13     8   ar
    22    20    15   ar
    23    20    11   ar
    24     1    21    1
    25     1    22    1
    26     3    23    1
    27     4    24    1
    28     5    25    1
    29     6    26    1
    30     9    27    1
    31    10    28    1
    32    13    29    1
    33    14    30    1
    34    17    31    1
    35    18    32    1
    36    19    33    1
