@<TRIPOS>MOLECULE
*****
 42 48 0 0 0
SMALL
GASTEIGER

@<TRIPOS>ATOM
      1 SI         -4.4899   -1.3590   -0.3964 Si      1  UNL1        0.0000
      2 C          -6.3449   -1.0715    0.0170 C.2     1  UNL1        0.0000
      3 C          -6.5198    0.0644    0.7278 C.2     1  UNL1        0.0000
      4 C          -5.3176    0.7859    1.0113 C.ar    1  UNL1        0.0000
      5 C          -5.1151    1.9498    1.7021 C.ar    1  UNL1        0.0000
      6 S          -3.4333    2.3501    1.7421 S.2     1  UNL1        0.0000
      7 C          -2.9819    0.9591    0.8183 C.ar    1  UNL1        0.0000
      8 C          -4.1027    0.2408    0.5197 C.ar    1  UNL1        0.0000
      9 C          -1.5895    0.7246    0.5018 C.ar    1  UNL1        0.0000
     10 C          -0.6117    0.3420    1.4389 C.ar    1  UNL1        0.0000
     11 C           0.7691    0.0762    1.1310 C.ar    1  UNL1        0.0000
     12 C           1.5918   -0.2898    2.1967 C.ar    1  UNL1        0.0000
     13 C           2.9448   -0.5732    2.0193 C.ar    1  UNL1        0.0000
     14 C           3.5353   -0.5051    0.7450 C.ar    1  UNL1        0.0000
     15 C           4.9205   -0.8032    0.5808 C.ar    1  UNL1        0.0000
     16 S           6.1184   -1.2659    1.7429 S.2     1  UNL1        0.0000
     17 C           7.3471   -1.3671    0.5647 C.ar    1  UNL1        0.0000
     18 C           6.8786   -1.0614   -0.6902 C.ar    1  UNL1        0.0000
     19 C           5.4905   -0.7377   -0.6903 C.ar    1  UNL1        0.0000
     20 N           4.7848   -0.4021   -1.7966 N.ar    1  UNL1        0.0000
     21 C           3.4749   -0.1263   -1.5917 C.ar    1  UNL1        0.0000
     22 C           2.7662   -0.1441   -0.3816 C.ar    1  UNL1        0.0000
     23 C           1.3522    0.1613   -0.1921 C.ar    1  UNL1        0.0000
     24 C           0.3270    0.5659   -1.1203 C.ar    1  UNL1        0.0000
     25 C           0.4261    0.8013   -2.4735 C.ar    1  UNL1        0.0000
     26 N          -0.8152    1.1848   -2.9412 N.ar    1  UNL1        0.0000
     27 C          -1.7194    1.2056   -1.9118 C.ar    1  UNL1        0.0000
     28 C          -1.0475    0.8234   -0.7757 C.ar    1  UNL1        0.0000
     29 H          -3.9999   -2.5900    0.2731 H       1  UNL1        0.0000
     30 H          -4.2832   -1.2946   -1.8657 H       1  UNL1        0.0000
     31 H          -7.0964   -1.7717   -0.3095 H       1  UNL1        0.0000
     32 H          -7.4904    0.4104    1.0640 H       1  UNL1        0.0000
     33 H          -5.8375    2.5891    2.1894 H       1  UNL1        0.0000
     34 H          -0.9405    0.2371    2.4755 H       1  UNL1        0.0000
     35 H           1.1884   -0.3610    3.2064 H       1  UNL1        0.0000
     36 H           3.5257   -0.8500    2.8964 H       1  UNL1        0.0000
     37 H           8.3534   -1.6457    0.8460 H       1  UNL1        0.0000
     38 H           7.4941   -1.0658   -1.5800 H       1  UNL1        0.0000
     39 H           2.9835    0.1238   -2.5209 H       1  UNL1        0.0000
     40 H           1.2321    0.7589   -3.1861 H       1  UNL1        0.0000
     41 H          -1.0221    1.4290   -3.9015 H       1  UNL1        0.0000
     42 H          -2.7457    1.5016   -2.0851 H       1  UNL1        0.0000
@<TRIPOS>BOND
     1     1     2    1
     2     2     3    2
     3     3     4    1
     4     4     5   ar
     5     5     6   ar
     6     6     7   ar
     7     7     8   ar
     8     7     9    1
     9     9    10   ar
    10    10    11   ar
    11    11    12   ar
    12    12    13   ar
    13    13    14   ar
    14    14    15   ar
    15    15    16   ar
    16    16    17   ar
    17    17    18   ar
    18    18    19   ar
    19    19    20   ar
    20    20    21   ar
    21    21    22   ar
    22    22    23   ar
    23    23    24   ar
    24    24    25   ar
    25    25    26   ar
    26    26    27   ar
    27    27    28   ar
    28     8     1    1
    29    28     9   ar
    30     8     4   ar
    31    23    11   ar
    32    28    24   ar
    33    22    14   ar
    34    19    15   ar
    35     1    29    1
    36     1    30    1
    37     2    31    1
    38     3    32    1
    39     5    33    1
    40    10    34    1
    41    12    35    1
    42    13    36    1
    43    17    37    1
    44    18    38    1
    45    21    39    1
    46    25    40    1
    47    26    41    1
    48    27    42    1
