@<TRIPOS>MOLECULE
*****
 30 32 0 0 0
SMALL
GASTEIGER

@<TRIPOS>ATOM
      1 N          -2.5008    1.8768   -0.3884 N.pl3   1  UNL1       -0.3575
      2 C          -2.7423    0.4880   -0.4020 C.ar    1  UNL1        0.0323
      3 C          -4.0614    0.0466   -0.5856 C.ar    1  UNL1       -0.0405
      4 C          -4.3842   -1.3089   -0.5182 C.ar    1  UNL1       -0.0600
      5 C          -3.3967   -2.2415   -0.2261 C.ar    1  UNL1       -0.0611
      6 C          -2.0917   -1.8138    0.0196 C.ar    1  UNL1       -0.0523
      7 C          -1.7457   -0.4487   -0.0385 C.ar    1  UNL1        0.0028
      8 C          -0.3608   -0.0528    0.2759 C.ar    1  UNL1       -0.0154
      9 C          -0.0748    0.7280    1.4085 C.ar    1  UNL1       -0.0533
     10 C           1.2374    1.0974    1.7174 C.ar    1  UNL1       -0.0497
     11 C           2.2893    0.6845    0.8942 C.ar    1  UNL1        0.0325
     12 C           2.0250   -0.0933   -0.2321 C.ar    1  UNL1        0.0330
     13 C           0.7072   -0.4602   -0.5403 C.ar    1  UNL1       -0.0425
     14 C           3.1274   -0.5370   -1.1082 C.2     1  UNL1        0.1869
     15 O           2.9286   -1.2193   -2.1045 O.2     1  UNL1       -0.2873
     16 C           4.4998   -0.1310   -0.7472 C.2     1  UNL1       -0.0107
     17 C           4.7521    0.6146    0.3310 C.2     1  UNL1       -0.0107
     18 C           3.6733    1.0771    1.2258 C.2     1  UNL1        0.1869
     19 O           3.9355    1.7635    2.2045 O.2     1  UNL1       -0.2873
     20 H          -1.5323    2.1133   -0.5842 H       1  UNL1        0.1423
     21 H          -3.1451    2.4043   -0.9689 H       1  UNL1        0.1423
     22 H          -4.8527    0.7638   -0.7891 H       1  UNL1        0.0636
     23 H          -5.4087   -1.6321   -0.6828 H       1  UNL1        0.0618
     24 H          -3.6432   -3.2984   -0.1680 H       1  UNL1        0.0618
     25 H          -1.3391   -2.5558    0.2805 H       1  UNL1        0.0624
     26 H          -0.8865    1.0533    2.0595 H       1  UNL1        0.0624
     27 H           1.4313    1.7037    2.6006 H       1  UNL1        0.0625
     28 H           0.5098   -1.0650   -1.4255 H       1  UNL1        0.0631
     29 H           5.2903   -0.4717   -1.4061 H       1  UNL1        0.0657
     30 H           5.7591    0.9143    0.5979 H       1  UNL1        0.0657
@<TRIPOS>BOND
     1     1     2    1
     2     2     3   ar
     3     3     4   ar
     4     4     5   ar
     5     5     6   ar
     6     6     7   ar
     7     7     8    1
     8     8     9   ar
     9     9    10   ar
    10    10    11   ar
    11    11    12   ar
    12    12    13   ar
    13    12    14    1
    14    14    15    2
    15    14    16    1
    16    16    17    2
    17    17    18    1
    18    18    19    2
    19     7     2   ar
    20    13     8   ar
    21    18    11    1
    22     1    20    1
    23     1    21    1
    24     3    22    1
    25     4    23    1
    26     5    24    1
    27     6    25    1
    28     9    26    1
    29    10    27    1
    30    13    28    1
    31    16    29    1
    32    17    30    1
