@<TRIPOS>MOLECULE
*****
 28 30 0 0 0
SMALL
GASTEIGER

@<TRIPOS>ATOM
      1 N          -1.7424   -1.4837   -1.8639 N.pl3   1  UNL1       -0.3575
      2 C          -2.2644   -0.7264   -0.7960 C.ar    1  UNL1        0.0323
      3 C          -3.6577   -0.6711   -0.6411 C.ar    1  UNL1       -0.0405
      4 C          -4.2432    0.1335    0.3367 C.ar    1  UNL1       -0.0600
      5 C          -3.4435    0.9273    1.1496 C.ar    1  UNL1       -0.0611
      6 C          -2.0603    0.9307    0.9685 C.ar    1  UNL1       -0.0523
      7 C          -1.4498    0.1288   -0.0166 C.ar    1  UNL1        0.0028
      8 C           0.0122    0.2088   -0.1924 C.ar    1  UNL1       -0.0154
      9 C           0.5632    0.7403   -1.3908 C.ar    1  UNL1       -0.0532
     10 C           1.9459    0.8408   -1.5880 C.ar    1  UNL1       -0.0483
     11 C           2.7572    0.4034   -0.5632 C.ar    1  UNL1        0.0492
     12 C           2.2381   -0.1143    0.6109 C.ar    1  UNL1        0.0498
     13 C           0.8782   -0.2252    0.8282 C.ar    1  UNL1       -0.0411
     14 C           3.3668   -0.4750    1.4675 C.2     1  UNL1        0.2513
     15 O           3.2830   -0.9615    2.5765 O.2     1  UNL1       -0.2698
     16 N           4.4931   -0.1580    0.7721 N.am    1  UNL1       -0.2483
     17 C           4.2151    0.3704   -0.4510 C.2     1  UNL1        0.2512
     18 O           4.9971    0.7456   -1.3003 O.2     1  UNL1       -0.2698
     19 H          -2.3223   -2.2772   -2.1182 H       1  UNL1        0.1423
     20 H          -0.7721   -1.7512   -1.7261 H       1  UNL1        0.1423
     21 H          -4.3017   -1.2646   -1.2853 H       1  UNL1        0.0636
     22 H          -5.3236    0.1473    0.4532 H       1  UNL1        0.0618
     23 H          -3.8948    1.5598    1.9095 H       1  UNL1        0.0618
     24 H          -1.4534    1.5855    1.5914 H       1  UNL1        0.0624
     25 H          -0.1094    1.0792   -2.1802 H       1  UNL1        0.0624
     26 H           2.3614    1.2465   -2.5046 H       1  UNL1        0.0625
     27 H           0.5005   -0.6389    1.7590 H       1  UNL1        0.0631
     28 H           5.4268   -0.3009    1.1217 H       1  UNL1        0.1581
@<TRIPOS>BOND
     1     1     2    1
     2     2     3   ar
     3     3     4   ar
     4     4     5   ar
     5     5     6   ar
     6     6     7   ar
     7     7     8    1
     8     8     9   ar
     9     9    10   ar
    10    10    11   ar
    11    11    12   ar
    12    12    13   ar
    13    12    14    1
    14    14    15    2
    15    14    16   am
    16    16    17   am
    17    17    18    2
    18     7     2   ar
    19    13     8   ar
    20    17    11    1
    21     1    19    1
    22     1    20    1
    23     3    21    1
    24     4    22    1
    25     5    23    1
    26     6    24    1
    27     9    25    1
    28    10    26    1
    29    13    27    1
    30    16    28    1
