@<TRIPOS>MOLECULE
*****
 33 36 0 0 0
SMALL
GASTEIGER

@<TRIPOS>ATOM
      1 N          -3.1136    1.7834   -0.7485 N.pl3   1  UNL1       -0.3575
      2 C          -3.5199    0.5182   -0.2780 C.ar    1  UNL1        0.0323
      3 C          -4.8940    0.2677   -0.1477 C.ar    1  UNL1       -0.0405
      4 C          -5.3597   -0.9269    0.4030 C.ar    1  UNL1       -0.0600
      5 C          -4.4552   -1.8738    0.8683 C.ar    1  UNL1       -0.0611
      6 C          -3.0860   -1.6154    0.7998 C.ar    1  UNL1       -0.0523
      7 C          -2.5960   -0.4137    0.2511 C.ar    1  UNL1        0.0028
      8 C          -1.1409   -0.1791    0.2382 C.ar    1  UNL1       -0.0150
      9 C          -0.5698    0.8078    1.0432 C.ar    1  UNL1       -0.0533
     10 C           0.8113    1.0360    1.0401 C.ar    1  UNL1       -0.0524
     11 C           1.6707    0.2655    0.2168 C.ar    1  UNL1       -0.0031
     12 C           1.0898   -0.7190   -0.5813 C.ar    1  UNL1        0.0211
     13 C          -0.3018   -0.9519   -0.5806 C.ar    1  UNL1       -0.0396
     14 S           2.2672   -1.5517   -1.5099 S.2     1  UNL1       -0.0882
     15 C           3.5631   -0.6264   -0.8729 C.ar    1  UNL1        0.0205
     16 C           4.9294   -0.7545   -1.1953 C.ar    1  UNL1       -0.0474
     17 C           5.8550    0.0878   -0.5769 C.ar    1  UNL1       -0.0607
     18 C           5.4361    1.0377    0.3421 C.ar    1  UNL1       -0.0611
     19 C           4.0797    1.1604    0.6581 C.ar    1  UNL1       -0.0529
     20 C           3.1115    0.3198    0.0477 C.ar    1  UNL1       -0.0031
     21 H          -3.7648    2.1989   -1.4062 H       1  UNL1        0.1423
     22 H          -2.1600    1.7842   -1.1024 H       1  UNL1        0.1423
     23 H          -5.6163    1.0088   -0.4803 H       1  UNL1        0.0636
     24 H          -6.4282   -1.1094    0.4788 H       1  UNL1        0.0618
     25 H          -4.8122   -2.8034    1.3034 H       1  UNL1        0.0618
     26 H          -2.3911   -2.3526    1.1981 H       1  UNL1        0.0624
     27 H          -1.2054    1.4163    1.6857 H       1  UNL1        0.0624
     28 H           1.2215    1.8137    1.6793 H       1  UNL1        0.0624
     29 H          -0.7214   -1.7259   -1.2193 H       1  UNL1        0.0635
     30 H           5.2597   -1.4984   -1.9151 H       1  UNL1        0.0629
     31 H           6.9111   -0.0041   -0.8194 H       1  UNL1        0.0618
     32 H           6.1626    1.6902    0.8202 H       1  UNL1        0.0618
     33 H           3.7678    1.9100    1.3811 H       1  UNL1        0.0624
@<TRIPOS>BOND
     1     1     2    1
     2     2     3   ar
     3     3     4   ar
     4     4     5   ar
     5     5     6   ar
     6     6     7   ar
     7     7     8    1
     8     8     9   ar
     9     9    10   ar
    10    10    11   ar
    11    11    12   ar
    12    12    13   ar
    13    12    14   ar
    14    14    15   ar
    15    15    16   ar
    16    16    17   ar
    17    17    18   ar
    18    18    19   ar
    19    19    20   ar
    20     7     2   ar
    21    13     8   ar
    22    20    15   ar
    23    20    11   ar
    24     1    21    1
    25     1    22    1
    26     3    23    1
    27     4    24    1
    28     5    25    1
    29     6    26    1
    30     9    27    1
    31    10    28    1
    32    13    29    1
    33    16    30    1
    34    17    31    1
    35    18    32    1
    36    19    33    1
