@<TRIPOS>MOLECULE
*****
 28 30 0 0 0
SMALL
GASTEIGER

@<TRIPOS>ATOM
      1 N          -2.2711   -1.6514   -0.8684 N.pl3   1  UNL1       -0.3575
      2 C          -2.4962   -0.4562   -0.1559 C.ar    1  UNL1        0.0324
      3 C          -3.8223   -0.0753    0.0988 C.ar    1  UNL1       -0.0405
      4 C          -4.1172    1.1408    0.7159 C.ar    1  UNL1       -0.0600
      5 C          -3.0894    2.0133    1.0523 C.ar    1  UNL1       -0.0611
      6 C          -1.7694    1.6767    0.7515 C.ar    1  UNL1       -0.0523
      7 C          -1.4510    0.4557    0.1241 C.ar    1  UNL1        0.0028
      8 C          -0.0437    0.1738   -0.2085 C.ar    1  UNL1       -0.0140
      9 C           0.3803    0.0913   -1.5384 C.ar    1  UNL1       -0.0518
     10 C           1.7189   -0.1692   -1.8409 C.ar    1  UNL1       -0.0337
     11 C           2.6615   -0.3498   -0.8392 C.ar    1  UNL1        0.0892
     12 N           3.9442   -0.6006   -1.1696 N.ar    1  UNL1       -0.2519
     13 C           4.8063   -0.7651   -0.1437 C.ar    1  UNL1        0.0464
     14 C           4.4064   -0.6845    1.1739 C.ar    1  UNL1        0.0464
     15 N           3.1263   -0.4358    1.5245 N.ar    1  UNL1       -0.2519
     16 C           2.2495   -0.2668    0.5141 C.ar    1  UNL1        0.0897
     17 C           0.9141   -0.0077    0.8014 C.ar    1  UNL1       -0.0265
     18 H          -1.3343   -2.0227   -0.7340 H       1  UNL1        0.1423
     19 H          -2.9843   -2.3562   -0.7112 H       1  UNL1        0.1423
     20 H          -4.6412   -0.7328   -0.1817 H       1  UNL1        0.0636
     21 H          -5.1500    1.4089    0.9215 H       1  UNL1        0.0618
     22 H          -3.3135    2.9641    1.5286 H       1  UNL1        0.0618
     23 H          -0.9799    2.3868    0.9914 H       1  UNL1        0.0624
     24 H          -0.3344    0.2291   -2.3487 H       1  UNL1        0.0624
     25 H           2.0326   -0.2312   -2.8799 H       1  UNL1        0.0640
     26 H           5.8365   -0.9654   -0.4144 H       1  UNL1        0.0845
     27 H           5.1066   -0.8183    1.9902 H       1  UNL1        0.0845
     28 H           0.6147    0.0484    1.8463 H       1  UNL1        0.0645
@<TRIPOS>BOND
     1     1     2    1
     2     2     3   ar
     3     3     4   ar
     4     4     5   ar
     5     5     6   ar
     6     6     7   ar
     7     7     8    1
     8     8     9   ar
     9     9    10   ar
    10    10    11   ar
    11    11    12   ar
    12    12    13   ar
    13    13    14   ar
    14    14    15   ar
    15    15    16   ar
    16    16    17   ar
    17     7     2   ar
    18    17     8   ar
    19    16    11   ar
    20     1    18    1
    21     1    19    1
    22     3    20    1
    23     4    21    1
    24     5    22    1
    25     6    23    1
    26     9    24    1
    27    10    25    1
    28    13    26    1
    29    14    27    1
    30    17    28    1
