@<TRIPOS>MOLECULE
*****
 28 30 0 0 0
SMALL
GASTEIGER

@<TRIPOS>ATOM
      1 N          -1.9017    2.1894    0.1178 N.pl3   1  UNL1       -0.3575
      2 C          -2.4169    0.8920    0.2866 C.ar    1  UNL1        0.0324
      3 C          -3.8020    0.7063    0.1670 C.ar    1  UNL1       -0.0405
      4 C          -4.3646   -0.5707    0.1947 C.ar    1  UNL1       -0.0600
      5 C          -3.5442   -1.6872    0.3029 C.ar    1  UNL1       -0.0611
      6 C          -2.1607   -1.5250    0.3701 C.ar    1  UNL1       -0.0522
      7 C          -1.5770   -0.2435    0.3469 C.ar    1  UNL1        0.0043
      8 C          -0.1162   -0.1303    0.4078 C.ar    1  UNL1        0.0040
      9 C           0.5392    0.1895    1.5908 C.ar    1  UNL1        0.0361
     10 N           1.8805    0.3164    1.7083 N.ar    1  UNL1       -0.2528
     11 C           2.6177    0.1055    0.5992 C.ar    1  UNL1        0.0892
     12 C           3.9978    0.2170    0.6601 C.ar    1  UNL1       -0.0328
     13 C           4.7847    0.0043   -0.4694 C.ar    1  UNL1       -0.0415
     14 C           4.1474   -0.3210   -1.6501 C.ar    1  UNL1        0.0284
     15 N           2.8086   -0.4425   -1.7642 N.ar    1  UNL1       -0.2534
     16 C           2.0665   -0.2309   -0.6564 C.ar    1  UNL1        0.0897
     17 C           0.6857   -0.3408   -0.7196 C.ar    1  UNL1       -0.0250
     18 H          -2.5314    2.9300    0.4082 H       1  UNL1        0.1423
     19 H          -0.9562    2.3233    0.4617 H       1  UNL1        0.1423
     20 H          -4.4577    1.5648    0.0440 H       1  UNL1        0.0636
     21 H          -5.4418   -0.6908    0.1146 H       1  UNL1        0.0618
     22 H          -3.9770   -2.6840    0.3176 H       1  UNL1        0.0618
     23 H          -1.5297   -2.4099    0.4339 H       1  UNL1        0.0624
     24 H          -0.0163    0.3593    2.5104 H       1  UNL1        0.0836
     25 H           4.4663    0.4740    1.6063 H       1  UNL1        0.0640
     26 H           5.8642    0.0912   -0.4234 H       1  UNL1        0.0633
     27 H           4.7094   -0.4980   -2.5629 H       1  UNL1        0.0830
     28 H           0.2254   -0.5887   -1.6735 H       1  UNL1        0.0646
@<TRIPOS>BOND
     1     1     2    1
     2     2     3   ar
     3     3     4   ar
     4     4     5   ar
     5     5     6   ar
     6     6     7   ar
     7     7     8    1
     8     8     9   ar
     9     9    10   ar
    10    10    11   ar
    11    11    12   ar
    12    12    13   ar
    13    13    14   ar
    14    14    15   ar
    15    15    16   ar
    16    16    17   ar
    17     7     2   ar
    18    17     8   ar
    19    16    11   ar
    20     1    18    1
    21     1    19    1
    22     3    20    1
    23     4    21    1
    24     5    22    1
    25     6    23    1
    26     9    24    1
    27    12    25    1
    28    13    26    1
    29    14    27    1
    30    17    28    1
