@<TRIPOS>MOLECULE
*****
 28 30 0 0 0
SMALL
GASTEIGER

@<TRIPOS>ATOM
      1 N          -2.0480   -0.4368    2.1849 N.pl3   1  UNL1       -0.3575
      2 C          -2.4433    0.0094    0.9092 C.ar    1  UNL1        0.0324
      3 C          -3.8054    0.2629    0.6881 C.ar    1  UNL1       -0.0405
      4 C          -4.2778    0.6175   -0.5758 C.ar    1  UNL1       -0.0600
      5 C          -3.3984    0.6844   -1.6491 C.ar    1  UNL1       -0.0611
      6 C          -2.0512    0.3757   -1.4600 C.ar    1  UNL1       -0.0522
      7 C          -1.5547    0.0108   -0.1920 C.ar    1  UNL1        0.0042
      8 C          -0.1359   -0.3521   -0.0605 C.ar    1  UNL1        0.0027
      9 C           0.2670   -1.6198    0.3409 C.ar    1  UNL1        0.0377
     10 N           1.5563   -2.0149    0.4838 N.ar    1  UNL1       -0.2351
     11 C           2.5303   -1.1446    0.2175 C.ar    1  UNL1        0.1597
     12 N           3.7951   -1.5458    0.3613 N.ar    1  UNL1       -0.2357
     13 C           4.7933   -0.6754    0.0955 C.ar    1  UNL1        0.0300
     14 C           4.5923    0.6246   -0.3205 C.ar    1  UNL1       -0.0429
     15 C           3.2832    1.0537   -0.4719 C.ar    1  UNL1       -0.0496
     16 C           2.2310    0.1665   -0.2024 C.ar    1  UNL1        0.0198
     17 C           0.8879    0.5533   -0.3388 C.ar    1  UNL1       -0.0418
     18 H          -2.6473   -0.1114    2.9370 H       1  UNL1        0.1423
     19 H          -1.0653   -0.2768    2.3907 H       1  UNL1        0.1423
     20 H          -4.5138    0.1887    1.5096 H       1  UNL1        0.0636
     21 H          -5.3342    0.8272   -0.7214 H       1  UNL1        0.0618
     22 H          -3.7624    0.9522   -2.6375 H       1  UNL1        0.0618
     23 H          -1.3857    0.3950   -2.3215 H       1  UNL1        0.0624
     24 H          -0.4662   -2.3905    0.5725 H       1  UNL1        0.0836
     25 H           5.7955   -1.0722    0.2331 H       1  UNL1        0.0830
     26 H           5.4304    1.2823   -0.5202 H       1  UNL1        0.0633
     27 H           3.0858    2.0715   -0.7975 H       1  UNL1        0.0625
     28 H           0.6413    1.5646   -0.6549 H       1  UNL1        0.0631
@<TRIPOS>BOND
     1     1     2    1
     2     2     3   ar
     3     3     4   ar
     4     4     5   ar
     5     5     6   ar
     6     6     7   ar
     7     7     8    1
     8     8     9   ar
     9     9    10   ar
    10    10    11   ar
    11    11    12   ar
    12    12    13   ar
    13    13    14   ar
    14    14    15   ar
    15    15    16   ar
    16    16    17   ar
    17     7     2   ar
    18    17     8   ar
    19    16    11   ar
    20     1    18    1
    21     1    19    1
    22     3    20    1
    23     4    21    1
    24     5    22    1
    25     6    23    1
    26     9    24    1
    27    13    25    1
    28    14    26    1
    29    15    27    1
    30    17    28    1
