@<TRIPOS>MOLECULE
*****
 26 28 0 0 0
SMALL
GASTEIGER

@<TRIPOS>ATOM
      1 N          -2.1941   -1.7858   -0.8394 N.pl3   1  UNL1       -0.3575
      2 C          -2.3807   -0.5361   -0.2097 C.ar    1  UNL1        0.0339
      3 C          -3.6950   -0.1391    0.0873 C.ar    1  UNL1       -0.0404
      4 C          -3.9551    1.0601    0.7505 C.ar    1  UNL1       -0.0600
      5 C          -2.9007    1.8655    1.1586 C.ar    1  UNL1       -0.0610
      6 C          -1.5880    1.4505    0.9339 C.ar    1  UNL1       -0.0508
      7 C          -1.2989    0.2304    0.2855 C.ar    1  UNL1        0.0225
      8 C           0.1067   -0.1890    0.1687 C.ar    1  UNL1        0.0933
      9 C           0.5541   -1.4519    0.5298 C.ar    1  UNL1        0.0561
     10 N           1.8487   -1.8332    0.4326 N.ar    1  UNL1       -0.2310
     11 C           2.7118   -0.9181   -0.0213 C.ar    1  UNL1        0.1977
     12 N           4.0019   -1.2657   -0.1272 N.ar    1  UNL1       -0.2316
     13 C           4.8527   -0.3247   -0.5830 C.ar    1  UNL1        0.0482
     14 C           4.4281    0.9387   -0.9286 C.ar    1  UNL1        0.0482
     15 N           3.1357    1.3109   -0.8329 N.ar    1  UNL1       -0.2316
     16 C           2.2696    0.3926   -0.3819 C.ar    1  UNL1        0.1983
     17 N           0.9812    0.7431   -0.2823 N.ar    1  UNL1       -0.2231
     18 H          -3.0131   -2.0939   -1.3579 H       1  UNL1        0.1423
     19 H          -1.3689   -1.8114   -1.4345 H       1  UNL1        0.1423
     20 H          -4.5354   -0.7589   -0.2157 H       1  UNL1        0.0636
     21 H          -4.9805    1.3622    0.9467 H       1  UNL1        0.0618
     22 H          -3.0939    2.8057    1.6686 H       1  UNL1        0.0618
     23 H          -0.7719    2.0807    1.2869 H       1  UNL1        0.0625
     24 H          -0.1231   -2.2056    0.9215 H       1  UNL1        0.0852
     25 H           5.8931   -0.6198   -0.6619 H       1  UNL1        0.0846
     26 H           5.1160    1.6927   -1.2945 H       1  UNL1        0.0846
@<TRIPOS>BOND
     1     1     2    1
     2     2     3   ar
     3     3     4   ar
     4     4     5   ar
     5     5     6   ar
     6     6     7   ar
     7     7     8    1
     8     8     9   ar
     9     9    10   ar
    10    10    11   ar
    11    11    12   ar
    12    12    13   ar
    13    13    14   ar
    14    14    15   ar
    15    15    16   ar
    16    16    17   ar
    17     7     2   ar
    18    17     8   ar
    19    16    11   ar
    20     1    18    1
    21     1    19    1
    22     3    20    1
    23     4    21    1
    24     5    22    1
    25     6    23    1
    26     9    24    1
    27    13    25    1
    28    14    26    1
