@<TRIPOS>MOLECULE
*****
 20 21 0 0 0
SMALL
GASTEIGER

@<TRIPOS>ATOM
      1 N          -0.4540    0.9721    1.9274 N.pl3   1  UNL1       -0.3575
      2 C          -0.8874    0.1554    0.8587 C.ar    1  UNL1        0.0338
      3 C          -2.2459   -0.1881    0.7973 C.ar    1  UNL1       -0.0404
      4 C          -2.7607   -0.8926   -0.2914 C.ar    1  UNL1       -0.0600
      5 C          -1.9287   -1.2349   -1.3515 C.ar    1  UNL1       -0.0610
      6 C          -0.5853   -0.8547   -1.3321 C.ar    1  UNL1       -0.0508
      7 C          -0.0533   -0.1354   -0.2457 C.ar    1  UNL1        0.0215
      8 C           1.3561    0.2654   -0.2555 C.ar    1  UNL1        0.0798
      9 C           2.0413    0.6512   -1.3938 C.ar    1  UNL1        0.0031
     10 S           3.6647    1.0473   -1.0041 S.2     1  UNL1       -0.0833
     11 C           3.3337    0.6949    0.6394 C.ar    1  UNL1        0.0654
     12 N           2.1085    0.3071    0.9167 N.ar    1  UNL1       -0.2474
     13 H           0.5661    0.9136    2.0202 H       1  UNL1        0.1423
     14 H          -0.9229    0.7684    2.8026 H       1  UNL1        0.1423
     15 H          -2.9150    0.0977    1.6049 H       1  UNL1        0.0636
     16 H          -3.8126   -1.1648   -0.3125 H       1  UNL1        0.0618
     17 H          -2.3257   -1.7883   -2.1985 H       1  UNL1        0.0618
     18 H           0.0425   -1.1357   -2.1740 H       1  UNL1        0.0625
     19 H           1.6832    0.7299   -2.4099 H       1  UNL1        0.0715
     20 H           4.0956    0.7913    1.4018 H       1  UNL1        0.0907
@<TRIPOS>BOND
     1     1     2    1
     2     2     3   ar
     3     3     4   ar
     4     4     5   ar
     5     5     6   ar
     6     6     7   ar
     7     7     8    1
     8     8     9   ar
     9     9    10   ar
    10    10    11   ar
    11    11    12   ar
    12     7     2   ar
    13    12     8   ar
    14     1    13    1
    15     1    14    1
    16     3    15    1
    17     4    16    1
    18     5    17    1
    19     6    18    1
    20     9    19    1
    21    11    20    1
