@<TRIPOS>MOLECULE
*****
 26 28 0 0 0
SMALL
GASTEIGER

@<TRIPOS>ATOM
      1 N          -1.6613   -1.6335    1.4809 N.pl3   1  UNL1       -0.3574
      2 C          -2.2226   -0.8726    0.4355 C.ar    1  UNL1        0.0369
      3 C          -3.6185   -0.9287    0.2761 C.ar    1  UNL1       -0.0403
      4 C          -4.2793   -0.1118   -0.6419 C.ar    1  UNL1       -0.0600
      5 C          -3.5579    0.8071   -1.3916 C.ar    1  UNL1       -0.0609
      6 C          -2.1785    0.9126   -1.2117 C.ar    1  UNL1       -0.0477
      7 C          -1.4897    0.0922   -0.2938 C.ar    1  UNL1        0.0575
      8 C          -0.0404    0.2891   -0.1742 C.ar    1  UNL1        0.2302
      9 N           0.7001    1.2747   -0.6586 N.ar    1  UNL1       -0.2089
     10 C           1.9766    0.9461   -0.2824 C.ar    1  UNL1        0.1099
     11 C           3.1971    1.6010   -0.4903 C.ar    1  UNL1       -0.0326
     12 C           4.3615    1.0073    0.0212 C.ar    1  UNL1       -0.0595
     13 C           4.3091   -0.2062    0.7196 C.ar    1  UNL1       -0.0582
     14 C           3.0960   -0.8725    0.9340 C.ar    1  UNL1       -0.0171
     15 C           1.9682   -0.2508    0.4124 C.ar    1  UNL1        0.1557
     16 O           0.6782   -0.6859    0.4795 O.2     1  UNL1       -0.4352
     17 H          -2.1450   -2.5065    1.6629 H       1  UNL1        0.1423
     18 H          -0.6545   -1.7595    1.3830 H       1  UNL1        0.1423
     19 H          -4.2067   -1.6142    0.8819 H       1  UNL1        0.0636
     20 H          -5.3578   -0.1836   -0.7557 H       1  UNL1        0.0618
     21 H          -4.0649    1.4535   -2.1031 H       1  UNL1        0.0618
     22 H          -1.6296    1.6530   -1.7932 H       1  UNL1        0.0626
     23 H           3.2332    2.5398   -1.0312 H       1  UNL1        0.0640
     24 H           5.3204    1.5001   -0.1283 H       1  UNL1        0.0618
     25 H           5.2303   -0.6406    1.1043 H       1  UNL1        0.0619
     26 H           3.0362   -1.8101    1.4714 H       1  UNL1        0.0655
@<TRIPOS>BOND
     1     1     2    1
     2     2     3   ar
     3     3     4   ar
     4     4     5   ar
     5     5     6   ar
     6     6     7   ar
     7     7     8    1
     8     8     9   ar
     9     9    10   ar
    10    10    11   ar
    11    11    12   ar
    12    12    13   ar
    13    13    14   ar
    14    14    15   ar
    15    15    16   ar
    16     7     2   ar
    17    16     8   ar
    18    15    10   ar
    19     1    17    1
    20     1    18    1
    21     3    19    1
    22     4    20    1
    23     5    21    1
    24     6    22    1
    25    11    23    1
    26    12    24    1
    27    13    25    1
    28    14    26    1
