@<TRIPOS>MOLECULE
*****
 19 20 0 0 0
SMALL
GASTEIGER

@<TRIPOS>ATOM
      1 N           0.1144    2.2808   -0.1346 N.pl3   1  UNL1       -0.3574
      2 C           0.6872    1.0188    0.1220 C.ar    1  UNL1        0.0355
      3 C           2.0818    0.9626    0.2853 C.ar    1  UNL1       -0.0404
      4 C           2.7500   -0.2563    0.4084 C.ar    1  UNL1       -0.0600
      5 C           2.0374   -1.4459    0.3319 C.ar    1  UNL1       -0.0610
      6 C           0.6583   -1.4134    0.1218 C.ar    1  UNL1       -0.0492
      7 C          -0.0342   -0.1916    0.0004 C.ar    1  UNL1        0.0430
      8 C          -1.4821   -0.2381   -0.2190 C.ar    1  UNL1        0.2036
      9 N          -2.1328   -1.4022   -0.5886 N.ar    1  UNL1       -0.1941
     10 C          -3.3799   -1.0158   -0.6622 C.ar    1  UNL1        0.2147
     11 O          -3.5703    0.2892   -0.3548 O.2     1  UNL1       -0.3411
     12 N          -2.3141    0.8083   -0.0505 N.ar    1  UNL1       -0.0564
     13 H           0.5752    3.0502    0.3391 H       1  UNL1        0.1423
     14 H          -0.8980    2.2899    0.0053 H       1  UNL1        0.1423
     15 H           2.6626    1.8818    0.3086 H       1  UNL1        0.0636
     16 H           3.8279   -0.2730    0.5467 H       1  UNL1        0.0618
     17 H           2.5522   -2.3991    0.4196 H       1  UNL1        0.0618
     18 H           0.1198   -2.3570    0.0477 H       1  UNL1        0.0625
     19 H          -4.2551   -1.5890   -0.9270 H       1  UNL1        0.1283
@<TRIPOS>BOND
     1     1     2    1
     2     2     3   ar
     3     3     4   ar
     4     4     5   ar
     5     5     6   ar
     6     6     7   ar
     7     7     8    1
     8     8     9   ar
     9     9    10   ar
    10    10    11   ar
    11    11    12   ar
    12     7     2   ar
    13    12     8   ar
    14     1    13    1
    15     1    14    1
    16     3    15    1
    17     4    16    1
    18     5    17    1
    19     6    18    1
    20    10    19    1
