@<TRIPOS>MOLECULE
*****
 46 53 0 0 0
SMALL
GASTEIGER

@<TRIPOS>ATOM
      1 SI          5.2991   -0.4448   -1.6715 Si      1  UNL1        0.0000
      2 C           7.1364   -0.8247   -1.2797 C.2     1  UNL1        0.0000
      3 C           7.3497   -0.9065    0.0521 C.2     1  UNL1        0.0000
      4 C           6.1877   -0.6979    0.8601 C.ar    1  UNL1        0.0000
      5 C           6.0305   -0.7168    2.2194 C.ar    1  UNL1        0.0000
      6 S           4.3834   -0.4105    2.6460 S.2     1  UNL1        0.0000
      7 C           3.8876   -0.2412    0.9978 C.ar    1  UNL1        0.0000
      8 C           4.9675   -0.4279    0.1857 C.ar    1  UNL1        0.0000
      9 C           2.5048    0.0472    0.6926 C.ar    1  UNL1        0.0000
     10 C           1.4403   -0.8616    0.8371 C.ar    1  UNL1        0.0000
     11 C           0.0635   -0.5708    0.5077 C.ar    1  UNL1        0.0000
     12 C          -0.8883   -1.5542    0.6953 C.ar    1  UNL1        0.0000
     13 N          -2.2078   -1.4277    0.4291 N.ar    1  UNL1        0.0000
     14 C          -2.6995   -0.2715   -0.0600 C.ar    1  UNL1        0.0000
     15 C          -1.8439    0.8184   -0.3002 C.ar    1  UNL1        0.0000
     16 C          -2.4596    1.9656   -0.8092 C.ar    1  UNL1        0.0000
     17 N          -3.7760    2.1158   -1.0843 N.ar    1  UNL1        0.0000
     18 C          -4.5923    1.0915   -0.8591 C.ar    1  UNL1        0.0000
     19 C          -5.9615    1.3056   -1.1648 C.ar    1  UNL1        0.0000
     20 C          -7.0055    0.3691   -1.0094 C.ar    1  UNL1        0.0000
     21 C          -6.5274   -0.8313   -0.5050 C.ar    1  UNL1        0.0000
     22 C          -7.3602   -1.8968   -0.2685 C.ar    1  UNL1        0.0000
     23 S          -6.4886   -3.2370    0.3516 S.2     1  UNL1        0.0000
     24 C          -4.9983   -2.3799    0.2994 C.ar    1  UNL1        0.0000
     25 C          -5.1468   -1.0973   -0.1791 C.ar    1  UNL1        0.0000
     26 C          -4.0891   -0.1376   -0.3404 C.ar    1  UNL1        0.0000
     27 C          -0.4261    0.6731   -0.0111 C.ar    1  UNL1        0.0000
     28 C           0.6872    1.5730   -0.1380 C.ar    1  UNL1        0.0000
     29 C           0.7170    2.8748   -0.5782 C.ar    1  UNL1        0.0000
     30 O           1.9898    3.3711   -0.5281 O.2     1  UNL1        0.0000
     31 C           2.7965    2.3858   -0.0479 C.ar    1  UNL1        0.0000
     32 C           2.0506    1.2621    0.1955 C.ar    1  UNL1        0.0000
     33 H           5.1640    0.8849   -2.3159 H       1  UNL1        0.0000
     34 H           4.6656   -1.5791   -2.3886 H       1  UNL1        0.0000
     35 H           7.8566   -0.9459   -2.0727 H       1  UNL1        0.0000
     36 H           8.3214   -1.1146    0.4852 H       1  UNL1        0.0000
     37 H           6.7681   -0.8939    2.9894 H       1  UNL1        0.0000
     38 H           1.6820   -1.8555    1.2220 H       1  UNL1        0.0000
     39 H          -0.6184   -2.5336    1.0863 H       1  UNL1        0.0000
     40 H          -1.9021    2.8639   -1.0339 H       1  UNL1        0.0000
     41 H          -6.2295    2.2892   -1.5571 H       1  UNL1        0.0000
     42 H          -8.0343    0.5894   -1.2599 H       1  UNL1        0.0000
     43 H          -8.4282   -1.9722   -0.4212 H       1  UNL1        0.0000
     44 H          -4.1049   -2.8891    0.6301 H       1  UNL1        0.0000
     45 H          -0.0014    3.5915   -0.9423 H       1  UNL1        0.0000
     46 H           3.8404    2.6478    0.0580 H       1  UNL1        0.0000
@<TRIPOS>BOND
     1     1     2    1
     2     2     3    2
     3     3     4    1
     4     4     5   ar
     5     5     6   ar
     6     6     7   ar
     7     7     8   ar
     8     7     9    1
     9     9    10   ar
    10    10    11   ar
    11    11    12   ar
    12    12    13   ar
    13    13    14   ar
    14    14    15   ar
    15    15    16   ar
    16    16    17   ar
    17    17    18   ar
    18    18    19   ar
    19    19    20   ar
    20    20    21   ar
    21    21    22   ar
    22    22    23   ar
    23    23    24   ar
    24    24    25   ar
    25    25    26   ar
    26    15    27   ar
    27    27    28   ar
    28    28    29   ar
    29    29    30   ar
    30    30    31   ar
    31    31    32   ar
    32     8     1    1
    33    32     9   ar
    34     8     4   ar
    35    27    11   ar
    36    32    28   ar
    37    26    14   ar
    38    26    18   ar
    39    25    21   ar
    40     1    33    1
    41     1    34    1
    42     2    35    1
    43     3    36    1
    44     5    37    1
    45    10    38    1
    46    12    39    1
    47    16    40    1
    48    19    41    1
    49    20    42    1
    50    22    43    1
    51    24    44    1
    52    29    45    1
    53    31    46    1
