@<TRIPOS>MOLECULE
*****
 33 35 0 0 0
SMALL
GASTEIGER

@<TRIPOS>ATOM
      1 N          -0.0456   -4.5973    0.8024 N.pl3   1  UNL1       -0.3273
      2 C          -0.6110   -3.3729    1.0888 C.ar    1  UNL1        0.2181
      3 N          -1.6238   -3.3489    1.9242 N.ar    1  UNL1       -0.1842
      4 C          -2.0843   -2.1283    2.1327 C.ar    1  UNL1        0.2286
      5 CL         -3.4087   -2.0005    3.2057 Cl      1  UNL1       -0.0409
      6 N          -1.6639   -0.9946    1.5966 N.ar    1  UNL1       -0.1833
      7 C          -0.6439   -1.1180    0.7510 C.ar    1  UNL1        0.2322
      8 N          -0.1094    0.0579    0.1093 N.pl3   1  UNL1       -0.2383
      9 C          -0.8725    1.2828    0.0814 C.ar    1  UNL1        0.0415
     10 C          -0.2480    2.5204    0.3274 C.ar    1  UNL1       -0.0399
     11 C          -0.9725    3.7149    0.2906 C.ar    1  UNL1       -0.0600
     12 C          -2.3347    3.6948    0.0042 C.ar    1  UNL1       -0.0616
     13 C          -2.9726    2.4825   -0.2458 C.ar    1  UNL1       -0.0600
     14 C          -2.2480    1.2875   -0.2088 C.ar    1  UNL1       -0.0399
     15 C           1.1960    0.0232   -0.5058 C.ar    1  UNL1        0.0415
     16 C           1.4176    0.6444   -1.7498 C.ar    1  UNL1       -0.0399
     17 C           2.6796    0.6301   -2.3500 C.ar    1  UNL1       -0.0600
     18 C           3.7451   -0.0035   -1.7166 C.ar    1  UNL1       -0.0616
     19 C           3.5503   -0.6217   -0.4843 C.ar    1  UNL1       -0.0600
     20 C           2.2877   -0.6077    0.1161 C.ar    1  UNL1       -0.0399
     21 N          -0.1060   -2.3140    0.4775 N.ar    1  UNL1       -0.1805
     22 H           0.4282   -4.5762   -0.0906 H       1  UNL1        0.1452
     23 H          -0.6974   -5.3514    0.9678 H       1  UNL1        0.1452
     24 H           0.8121    2.5601    0.5680 H       1  UNL1        0.0636
     25 H          -0.4714    4.6584    0.4904 H       1  UNL1        0.0618
     26 H          -2.8995    4.6230   -0.0223 H       1  UNL1        0.0618
     27 H          -4.0358    2.4636   -0.4709 H       1  UNL1        0.0618
     28 H          -2.7697    0.3589   -0.4251 H       1  UNL1        0.0636
     29 H           0.5977    1.1346   -2.2702 H       1  UNL1        0.0636
     30 H           2.8265    1.1120   -3.3130 H       1  UNL1        0.0618
     31 H           4.7269   -0.0154   -2.1827 H       1  UNL1        0.0618
     32 H           4.3805   -1.1146    0.0150 H       1  UNL1        0.0618
     33 H           2.1706   -1.0837    1.0866 H       1  UNL1        0.0636
@<TRIPOS>BOND
     1     1     2    1
     2     2     3   ar
     3     3     4   ar
     4     4     5    1
     5     4     6   ar
     6     6     7   ar
     7     7     8    1
     8     8     9    1
     9     9    10   ar
    10    10    11   ar
    11    11    12   ar
    12    12    13   ar
    13    13    14   ar
    14     8    15    1
    15    15    16   ar
    16    16    17   ar
    17    17    18   ar
    18    18    19   ar
    19    19    20   ar
    20     7    21   ar
    21    21     2   ar
    22    14     9   ar
    23    20    15   ar
    24     1    22    1
    25     1    23    1
    26    10    24    1
    27    11    25    1
    28    12    26    1
    29    13    27    1
    30    14    28    1
    31    16    29    1
    32    17    30    1
    33    18    31    1
    34    19    32    1
    35    20    33    1
