@<TRIPOS>MOLECULE
*****
 37 39 0 0 0
SMALL
GASTEIGER

@<TRIPOS>ATOM
      1 N           6.2530    2.2254   -1.1149 N.pl3   1  UNL1       -0.3278
      2 C           5.5413    1.2223   -0.5757 C.ar    1  UNL1        0.2092
      3 N           5.8170   -0.0542   -0.5862 N.ar    1  UNL1       -0.1880
      4 C           4.7607   -0.6123    0.0822 C.ar    1  UNL1        0.2104
      5 S           4.6403   -2.3316    0.3436 S.3     1  UNL1       -0.0764
      6 C           2.9528   -2.4706    0.9882 C.3     1  UNL1        0.0642
      7 C           1.9164   -2.0986   -0.0584 C.2     1  UNL1        0.1733
      8 O           2.0117   -2.4155   -1.2444 O.2     1  UNL1       -0.2912
      9 C           0.7005   -1.3490    0.3739 C.ar    1  UNL1        0.0185
     10 C           0.2212   -1.3923    1.6889 C.ar    1  UNL1       -0.0478
     11 C          -0.9262   -0.6733    2.0382 C.ar    1  UNL1       -0.0187
     12 C          -1.6089    0.0700    1.0747 C.ar    1  UNL1        0.1285
     13 O          -2.7090    0.7784    1.5007 O.3     1  UNL1       -0.4560
     14 C          -3.8332    0.7421    0.7073 C.ar    1  UNL1        0.1284
     15 C          -4.4817    1.9549    0.4720 C.ar    1  UNL1       -0.0193
     16 C          -5.6455    1.9833   -0.2969 C.ar    1  UNL1       -0.0583
     17 C          -6.1672    0.7978   -0.8158 C.ar    1  UNL1       -0.0615
     18 C          -5.5312   -0.4177   -0.5603 C.ar    1  UNL1       -0.0583
     19 C          -4.3672   -0.4491    0.2090 C.ar    1  UNL1       -0.0193
     20 C          -1.1311    0.1269   -0.2357 C.ar    1  UNL1       -0.0187
     21 C           0.0144   -0.5913   -0.5866 C.ar    1  UNL1       -0.0478
     22 N           3.8540    0.2612    0.5388 N.ar    1  UNL1       -0.1443
     23 N           4.3722    1.4222    0.1013 N.ar    1  UNL1       -0.2461
     24 H           6.9982    1.9183   -1.7376 H       1  UNL1        0.1451
     25 H           5.7808    3.0480   -1.4743 H       1  UNL1        0.1451
     26 H           2.8750   -1.8485    1.8832 H       1  UNL1        0.0462
     27 H           2.7723   -3.5093    1.2825 H       1  UNL1        0.0462
     28 H           0.7104   -1.9842    2.4565 H       1  UNL1        0.0626
     29 H          -1.2950   -0.7005    3.0607 H       1  UNL1        0.0654
     30 H          -4.0787    2.8760    0.8834 H       1  UNL1        0.0654
     31 H          -6.1479    2.9280   -0.4877 H       1  UNL1        0.0619
     32 H          -7.0752    0.8199   -1.4134 H       1  UNL1        0.0618
     33 H          -5.9455   -1.3418   -0.9553 H       1  UNL1        0.0619
     34 H          -3.8891   -1.4018    0.4182 H       1  UNL1        0.0654
     35 H          -1.6388    0.7250   -0.9877 H       1  UNL1        0.0654
     36 H           0.3766   -0.5525   -1.6127 H       1  UNL1        0.0626
     37 H           3.9026    2.2944    0.3054 H       1  UNL1        0.1918
@<TRIPOS>BOND
     1     1     2    1
     2     2     3   ar
     3     3     4   ar
     4     4     5    1
     5     5     6    1
     6     6     7    1
     7     7     8    2
     8     7     9    1
     9     9    10   ar
    10    10    11   ar
    11    11    12   ar
    12    12    13    1
    13    13    14    1
    14    14    15   ar
    15    15    16   ar
    16    16    17   ar
    17    17    18   ar
    18    18    19   ar
    19    12    20   ar
    20    20    21   ar
    21     4    22   ar
    22    22    23   ar
    23    23     2   ar
    24    21     9   ar
    25    19    14   ar
    26     1    24    1
    27     1    25    1
    28     6    26    1
    29     6    27    1
    30    10    28    1
    31    11    29    1
    32    15    30    1
    33    16    31    1
    34    17    32    1
    35    18    33    1
    36    19    34    1
    37    20    35    1
    38    21    36    1
    39    23    37    1
