@<TRIPOS>MOLECULE
*****
 29 31 0 0 0
SMALL
GASTEIGER

@<TRIPOS>ATOM
      1 N           3.6579    1.8450   -1.1617 N.pl3   1  UNL1       -0.3361
      2 C           3.3637    0.5538   -0.9108 C.ar    1  UNL1        0.1798
      3 N           2.9590   -0.3067   -1.8175 N.ar    1  UNL1       -0.1254
      4 N           2.7382   -1.5648   -1.2881 N.ar    1  UNL1       -0.1332
      5 C           2.9659   -1.5965    0.0061 C.ar    1  UNL1        0.1603
      6 S           2.7568   -3.0705    0.9251 S.3     1  UNL1       -0.0906
      7 C           1.4399   -2.5743    2.0719 C.3     1  UNL1        0.0456
      8 C           0.2188   -2.1048    1.3720 C.ar    1  UNL1        0.0900
      9 C          -0.7893   -2.8302    0.7808 C.ar    1  UNL1        0.1165
     10 O          -1.6833   -1.9564    0.2425 O.2     1  UNL1       -0.4432
     11 C          -1.1640   -0.7198    0.5284 C.ar    1  UNL1        0.2273
     12 C          -1.9032    0.4403    0.0380 C.ar    1  UNL1        0.0370
     13 C          -1.3768    1.7279    0.2313 C.ar    1  UNL1       -0.0481
     14 C          -2.0595    2.8591   -0.2270 C.ar    1  UNL1       -0.0427
     15 C          -3.2779    2.7108   -0.8844 C.ar    1  UNL1        0.0410
     16 CL         -4.1208    4.1001   -1.4483 Cl      1  UNL1       -0.0835
     17 C          -3.8174    1.4429   -1.0879 C.ar    1  UNL1       -0.0427
     18 C          -3.1320    0.3126   -0.6288 C.ar    1  UNL1       -0.0481
     19 N          -0.0417   -0.7589    1.2229 N.ar    1  UNL1       -0.2132
     20 S           3.5281   -0.1176    0.6619 S.2     1  UNL1       -0.0247
     21 H           3.8086    2.0683   -2.1404 H       1  UNL1        0.1442
     22 H           4.3085    2.3049   -0.5364 H       1  UNL1        0.1442
     23 H           1.8163   -1.7977    2.7462 H       1  UNL1        0.0445
     24 H           1.1948   -3.4406    2.6959 H       1  UNL1        0.0445
     25 H          -1.0020   -3.8808    0.6480 H       1  UNL1        0.1049
     26 H          -0.4212    1.8537    0.7390 H       1  UNL1        0.0626
     27 H          -1.6328    3.8459   -0.0694 H       1  UNL1        0.0632
     28 H          -4.7670    1.3242   -1.6030 H       1  UNL1        0.0632
     29 H          -3.5675   -0.6700   -0.7995 H       1  UNL1        0.0626
@<TRIPOS>BOND
     1     1     2    1
     2     2     3   ar
     3     3     4   ar
     4     4     5   ar
     5     5     6    1
     6     6     7    1
     7     7     8    1
     8     8     9   ar
     9     9    10   ar
    10    10    11   ar
    11    11    12    1
    12    12    13   ar
    13    13    14   ar
    14    14    15   ar
    15    15    16    1
    16    15    17   ar
    17    17    18   ar
    18    11    19   ar
    19     5    20   ar
    20    20     2   ar
    21    19     8   ar
    22    18    12   ar
    23     1    21    1
    24     1    22    1
    25     7    23    1
    26     7    24    1
    27     9    25    1
    28    13    26    1
    29    14    27    1
    30    17    28    1
    31    18    29    1
