@<TRIPOS>MOLECULE
*****
 35 37 0 0 0
SMALL
GASTEIGER

@<TRIPOS>ATOM
      1 N          -5.1322    1.8378   -1.4136 N.pl3   1  UNL1       -0.3272
      2 C          -5.0223    0.9069   -0.4471 C.ar    1  UNL1        0.2209
      3 N          -6.0029    0.2978    0.1797 N.ar    1  UNL1       -0.1134
      4 N          -5.4600   -0.6029    1.0574 N.ar    1  UNL1       -0.1358
      5 C          -4.1560   -0.5160    0.9516 C.ar    1  UNL1        0.1278
      6 N          -3.8044    0.4379    0.0276 N.ar    1  UNL1       -0.2398
      7 C          -2.5285    0.8641   -0.3556 C.2     1  UNL1        0.2351
      8 O          -2.4062    1.7830   -1.1603 O.2     1  UNL1       -0.2722
      9 C          -1.3607    0.1303    0.2533 C.3     1  UNL1        0.0285
     10 C          -1.0322   -1.1352   -0.5386 C.3     1  UNL1       -0.0282
     11 C           0.0634   -1.9827    0.1135 C.3     1  UNL1        0.0234
     12 N           1.3476   -1.3130    0.1513 N.am    1  UNL1       -0.2341
     13 C           1.8021   -0.5802    1.2138 C.2     1  UNL1        0.2538
     14 O           1.2470   -0.3480    2.2709 O.2     1  UNL1       -0.2695
     15 C           3.1183   -0.0698    0.8350 C.ar    1  UNL1        0.0494
     16 C           4.0113    0.7143    1.5382 C.ar    1  UNL1       -0.0489
     17 C           5.2064    1.0524    0.8951 C.ar    1  UNL1       -0.0610
     18 C           5.4745    0.6066   -0.4165 C.ar    1  UNL1       -0.0610
     19 C           4.5521   -0.1853   -1.1082 C.ar    1  UNL1       -0.0489
     20 C           3.3808   -0.5068   -0.4514 C.ar    1  UNL1        0.0494
     21 C           2.2334   -1.2983   -0.8923 C.2     1  UNL1        0.2538
     22 O           2.1323   -1.8137   -1.9886 O.2     1  UNL1       -0.2695
     23 H          -4.3193    2.4004   -1.6702 H       1  UNL1        0.1452
     24 H          -6.0256    2.3076   -1.5205 H       1  UNL1        0.1452
     25 H          -3.4539   -1.1073    1.5201 H       1  UNL1        0.1053
     26 H          -1.5326   -0.0749    1.3140 H       1  UNL1        0.0361
     27 H          -0.5086    0.8204    0.2200 H       1  UNL1        0.0361
     28 H          -1.9314   -1.7546   -0.6393 H       1  UNL1        0.0285
     29 H          -0.7347   -0.8577   -1.5578 H       1  UNL1        0.0285
     30 H          -0.2291   -2.2508    1.1350 H       1  UNL1        0.0470
     31 H           0.1818   -2.9093   -0.4598 H       1  UNL1        0.0470
     32 H           3.7922    1.0526    2.5457 H       1  UNL1        0.0625
     33 H           5.9409    1.6689    1.4110 H       1  UNL1        0.0618
     34 H           6.4120    0.8849   -0.8954 H       1  UNL1        0.0618
     35 H           4.7447   -0.5330   -2.1181 H       1  UNL1        0.0625
@<TRIPOS>BOND
     1     1     2    1
     2     2     3   ar
     3     3     4   ar
     4     4     5   ar
     5     5     6   ar
     6     6     7   am
     7     7     8    2
     8     7     9    1
     9     9    10    1
    10    10    11    1
    11    11    12    1
    12    12    13   am
    13    13    14    2
    14    13    15    1
    15    15    16   ar
    16    16    17   ar
    17    17    18   ar
    18    18    19   ar
    19    19    20   ar
    20    20    21    1
    21    21    22    2
    22     6     2   ar
    23    21    12   am
    24    20    15   ar
    25     1    23    1
    26     1    24    1
    27     5    25    1
    28     9    26    1
    29     9    27    1
    30    10    28    1
    31    10    29    1
    32    11    30    1
    33    11    31    1
    34    16    32    1
    35    17    33    1
    36    18    34    1
    37    19    35    1
