@<TRIPOS>MOLECULE
*****
 29 31 0 0 0
SMALL
GASTEIGER

@<TRIPOS>ATOM
      1 N          -5.5109   -0.2346   -1.4000 N.pl3   1  UNL1       -0.3377
      2 C          -5.5139    0.2346   -0.1361 C.ar    1  UNL1        0.2022
      3 N          -6.6180    0.5757    0.5252 N.ar    1  UNL1       -0.0322
      4 O          -6.1868    0.9576    1.7858 O.2     1  UNL1       -0.2390
      5 N          -4.8070    0.8616    1.9006 N.ar    1  UNL1       -0.0316
      6 C          -4.3820    0.4341    0.7084 C.ar    1  UNL1        0.2103
      7 N          -3.0240    0.2599    0.5152 N.am    1  UNL1       -0.2642
      8 C          -2.3902   -0.0112   -0.6769 C.2     1  UNL1        0.2287
      9 O          -2.9355   -0.1096   -1.7742 O.2     1  UNL1       -0.2745
     10 C          -0.8903   -0.1883   -0.5242 C.3     1  UNL1        0.0770
     11 S          -0.1136    1.4357   -0.2964 S.3     1  UNL1       -0.0894
     12 C           1.5618    0.9542   -0.1386 C.ar    1  UNL1        0.1362
     13 N           1.9058   -0.3063   -0.0223 N.ar    1  UNL1       -0.2327
     14 C           3.2837   -0.4021    0.0900 C.ar    1  UNL1        0.0795
     15 C           4.0210   -1.5959    0.2262 C.ar    1  UNL1       -0.0352
     16 C           5.4149   -1.5445    0.3308 C.ar    1  UNL1       -0.0597
     17 C           6.0797   -0.3226    0.3015 C.ar    1  UNL1       -0.0606
     18 C           5.3721    0.8760    0.1675 C.ar    1  UNL1       -0.0459
     19 C           3.9727    0.8128    0.0630 C.ar    1  UNL1        0.0400
     20 S           2.8357    2.0943   -0.1095 S.2     1  UNL1       -0.0610
     21 H          -6.3188   -0.0408   -1.9797 H       1  UNL1        0.1439
     22 H          -4.6274   -0.2133   -1.9200 H       1  UNL1        0.1439
     23 H          -2.4717    0.4726    1.3361 H       1  UNL1        0.1564
     24 H          -0.6943   -0.8395    0.3345 H       1  UNL1        0.0475
     25 H          -0.5017   -0.6755   -1.4245 H       1  UNL1        0.0475
     26 H           3.5008   -2.5484    0.2484 H       1  UNL1        0.0639
     27 H           5.9806   -2.4679    0.4353 H       1  UNL1        0.0618
     28 H           7.1646   -0.2975    0.3837 H       1  UNL1        0.0618
     29 H           5.8927    1.8287    0.1447 H       1  UNL1        0.0629
@<TRIPOS>BOND
     1     1     2    1
     2     2     3   ar
     3     3     4   ar
     4     4     5   ar
     5     5     6   ar
     6     6     7    1
     7     7     8   am
     8     8     9    2
     9     8    10    1
    10    10    11    1
    11    11    12    1
    12    12    13   ar
    13    13    14   ar
    14    14    15   ar
    15    15    16   ar
    16    16    17   ar
    17    17    18   ar
    18    18    19   ar
    19    19    20   ar
    20     6     2   ar
    21    20    12   ar
    22    19    14   ar
    23     1    21    1
    24     1    22    1
    25     7    23    1
    26    10    24    1
    27    10    25    1
    28    15    26    1
    29    16    27    1
    30    17    28    1
    31    18    29    1
