@<TRIPOS>MOLECULE
*****
 29 31 0 0 0
SMALL
GASTEIGER

@<TRIPOS>ATOM
      1 O           3.4446    1.3721   -0.9287 O.3     1  UNL1       -0.4673
      2 C           4.8051    1.4600   -0.5322 C.3     1  UNL1        0.0819
      3 C           2.6838    0.5807   -0.1803 C.ar    1  UNL1        0.2866
      4 O           1.3913    0.5309   -0.5913 O.2     1  UNL1       -0.4233
      5 C           0.7053   -0.3113    0.2451 C.ar    1  UNL1        0.1575
      6 C          -0.6944   -0.5702    0.0860 C.ar    1  UNL1        0.1114
      7 N          -1.3090   -1.7900    0.2573 N.ar    1  UNL1       -0.2626
      8 C          -0.6832   -3.0624    0.5386 C.3     1  UNL1        0.0310
      9 N          -2.6518   -1.7713    0.0970 N.ar    1  UNL1       -0.1708
     10 C          -2.9374   -0.5097   -0.2579 C.ar    1  UNL1        0.0934
     11 C          -4.1760    0.0747   -0.5720 C.ar    1  UNL1       -0.0340
     12 C          -4.0965    1.4457   -0.8995 C.ar    1  UNL1       -0.0597
     13 C          -2.8729    2.1829   -0.9110 C.ar    1  UNL1       -0.0610
     14 C          -1.6172    1.6235   -0.5976 C.ar    1  UNL1       -0.0504
     15 C          -1.7220    0.2678   -0.2834 C.ar    1  UNL1        0.0306
     16 C           1.5869   -0.7830    1.2048 C.ar    1  UNL1       -0.0105
     17 C           2.8561   -0.2160    0.9277 C.ar    1  UNL1        0.0222
     18 H           5.2939    0.4813   -0.5879 H       1  UNL1        0.0661
     19 H           5.3181    2.1355   -1.2233 H       1  UNL1        0.0661
     20 H           4.8932    1.8755    0.4775 H       1  UNL1        0.0661
     21 H           0.2446   -3.1427   -0.0325 H       1  UNL1        0.0473
     22 H          -1.3566   -3.8702    0.2382 H       1  UNL1        0.0473
     23 H          -0.4913   -3.1185    1.6124 H       1  UNL1        0.0473
     24 H          -5.1028   -0.4810   -0.5624 H       1  UNL1        0.0639
     25 H          -5.0165    1.9704   -1.1572 H       1  UNL1        0.0618
     26 H          -2.9133    3.2396   -1.1780 H       1  UNL1        0.0618
     27 H          -0.6984    2.1943   -0.6103 H       1  UNL1        0.0625
     28 H           1.3433   -1.4438    2.0245 H       1  UNL1        0.0657
     29 H           3.7733   -0.3650    1.4778 H       1  UNL1        0.0689
@<TRIPOS>BOND
     1     1     2    1
     2     1     3    1
     3     3     4   ar
     4     4     5   ar
     5     5     6    1
     6     6     7   ar
     7     7     8    1
     8     7     9   ar
     9     9    10   ar
    10    10    11   ar
    11    11    12   ar
    12    12    13   ar
    13    13    14   ar
    14    14    15   ar
    15     5    16   ar
    16    16    17   ar
    17    17     3   ar
    18    15     6   ar
    19    15    10   ar
    20     2    18    1
    21     2    19    1
    22     2    20    1
    23     8    21    1
    24     8    22    1
    25     8    23    1
    26    11    24    1
    27    12    25    1
    28    13    26    1
    29    14    27    1
    30    16    28    1
    31    17    29    1
