@<TRIPOS>MOLECULE
*****
 33 34 0 0 0
SMALL
GASTEIGER

@<TRIPOS>ATOM
      1 O          -3.4750    0.7779    2.3420 O.2     1  UNL1        0.0415
      2 N          -4.1042    1.1214    1.3281 N.pl3   1  UNL1        0.0815
      3 O          -5.0085    1.9692    1.3129 O.co2   1  UNL1       -0.5760
      4 C          -3.7745    0.4599    0.0622 C.ar    1  UNL1        0.2938
      5 C          -4.8266    0.2716   -0.8547 C.ar    1  UNL1        0.0189
      6 C          -4.5749   -0.3473   -2.0757 C.ar    1  UNL1       -0.0369
      7 C          -3.2813   -0.7599   -2.3761 C.ar    1  UNL1        0.0431
      8 CL         -2.9599   -1.5041   -3.8948 Cl      1  UNL1       -0.0835
      9 C          -2.2358   -0.5689   -1.4638 C.ar    1  UNL1       -0.0159
     10 C          -2.4537    0.0184   -0.2041 C.ar    1  UNL1        0.1068
     11 N          -1.3864    0.2934    0.6706 N.pl3   1  UNL1       -0.3353
     12 C          -0.1377   -0.4691    0.5785 C.3     1  UNL1        0.0435
     13 C           0.8203   -0.0761    1.7118 C.3     1  UNL1        0.1049
     14 O           2.0402   -0.8152    1.6351 O.3     1  UNL1       -0.4904
     15 C           3.0547   -0.3316    0.8578 C.ar    1  UNL1        0.1207
     16 C           3.0157    0.8155    0.0611 C.ar    1  UNL1       -0.0172
     17 C           4.1365    1.1854   -0.6896 C.ar    1  UNL1       -0.0230
     18 C           5.2878    0.4087   -0.6414 C.ar    1  UNL1        0.1236
     19 F           6.3574    0.7676   -1.3628 F       1  UNL1       -0.2055
     20 C           5.3420   -0.7343    0.1436 C.ar    1  UNL1       -0.0230
     21 C           4.2231   -1.1027    0.8921 C.ar    1  UNL1       -0.0172
     22 H          -5.8374    0.6058   -0.6269 H       1  UNL1        0.0686
     23 H          -5.3828   -0.4937   -2.7885 H       1  UNL1        0.0634
     24 H          -1.2412   -0.8858   -1.7646 H       1  UNL1        0.0653
     25 H          -1.7189    0.3698    1.6408 H       1  UNL1        0.1464
     26 H          -0.3389   -1.5459    0.6386 H       1  UNL1        0.0495
     27 H           0.3520   -0.2832   -0.3830 H       1  UNL1        0.0495
     28 H           0.3569   -0.3460    2.6688 H       1  UNL1        0.0712
     29 H           0.9892    1.0057    1.7692 H       1  UNL1        0.0712
     30 H           2.1347    1.4451   -0.0058 H       1  UNL1        0.0655
     31 H           4.1171    2.0750   -1.3114 H       1  UNL1        0.0647
     32 H           6.2487   -1.3295    0.1701 H       1  UNL1        0.0647
     33 H           4.2611   -1.9972    1.5096 H       1  UNL1        0.0655
@<TRIPOS>UNITY_ATOM_ATTR
2 1
charge 1
3 1
charge -1
@<TRIPOS>BOND
     1     1     2    2
     2     2     3    1
     3     2     4    1
     4     4     5   ar
     5     5     6   ar
     6     6     7   ar
     7     7     8    1
     8     7     9   ar
     9     9    10   ar
    10    10    11    1
    11    11    12    1
    12    12    13    1
    13    13    14    1
    14    14    15    1
    15    15    16   ar
    16    16    17   ar
    17    17    18   ar
    18    18    19    1
    19    18    20   ar
    20    20    21   ar
    21    10     4   ar
    22    21    15   ar
    23     5    22    1
    24     6    23    1
    25     9    24    1
    26    11    25    1
    27    12    26    1
    28    12    27    1
    29    13    28    1
    30    13    29    1
    31    16    30    1
    32    17    31    1
    33    20    32    1
    34    21    33    1
