@<TRIPOS>MOLECULE
*****
 44 45 0 0 0
SMALL
GASTEIGER

@<TRIPOS>ATOM
      1 O           6.6583    0.7696    1.7585 O.2     1  UNL1        0.0414
      2 N           6.2390    0.9584    0.6074 N.pl3   1  UNL1        0.0796
      3 O           6.8332    1.6199   -0.2562 O.co2   1  UNL1       -0.5760
      4 C           4.9513    0.3563    0.2415 C.ar    1  UNL1        0.2732
      5 C           4.2486   -0.4052    1.1820 C.ar    1  UNL1        0.0159
      6 C           3.0230   -0.9757    0.8278 C.ar    1  UNL1       -0.0509
      7 C           2.4860   -0.7896   -0.4569 C.ar    1  UNL1       -0.0329
      8 C           1.1523   -1.4117   -0.8320 C.3     1  UNL1        0.0242
      9 N          -0.0395   -0.5638   -0.6883 N.3     1  UNL1       -0.2938
     10 C          -0.3354   -0.1698    0.7033 C.3     1  UNL1        0.0228
     11 C          -0.7515   -1.3152    1.6486 C.3     1  UNL1        0.0605
     12 O          -1.8130   -2.1280    1.1412 O.3     1  UNL1       -0.3762
     13 C          -3.1228   -1.7723    1.5992 C.3     1  UNL1        0.0711
     14 C          -3.7874   -0.6966    0.7366 C.3     1  UNL1        0.0711
     15 O          -3.4586    0.5992    1.2388 O.3     1  UNL1       -0.3752
     16 C          -4.0094    1.6856    0.4819 C.3     1  UNL1        0.0711
     17 C          -3.5067    1.7753   -0.9661 C.3     1  UNL1        0.0711
     18 O          -2.0799    1.8213   -0.9754 O.3     1  UNL1       -0.3762
     19 C          -1.4960    1.0136   -1.9970 C.3     1  UNL1        0.0605
     20 C          -0.0626    0.5868   -1.6141 C.3     1  UNL1        0.0228
     21 C           3.2116   -0.0307   -1.3898 C.ar    1  UNL1       -0.0509
     22 C           4.4382    0.5446   -1.0469 C.ar    1  UNL1        0.0159
     23 H           4.6368   -0.5646    2.1859 H       1  UNL1        0.0685
     24 H           2.4868   -1.5711    1.5641 H       1  UNL1        0.0623
     25 H           1.2162   -1.7648   -1.8707 H       1  UNL1        0.0476
     26 H           1.0179   -2.3383   -0.2597 H       1  UNL1        0.0476
     27 H          -1.1538    0.5432    0.7134 H       1  UNL1        0.0449
     28 H           0.5114    0.3695    1.1440 H       1  UNL1        0.0449
     29 H           0.0999   -1.9843    1.8063 H       1  UNL1        0.0572
     30 H          -1.0058   -0.9113    2.6358 H       1  UNL1        0.0572
     31 H          -3.7153   -2.6888    1.5058 H       1  UNL1        0.0583
     32 H          -3.1036   -1.4994    2.6602 H       1  UNL1        0.0583
     33 H          -4.8756   -0.8101    0.7883 H       1  UNL1        0.0583
     34 H          -3.4556   -0.8069   -0.2988 H       1  UNL1        0.0583
     35 H          -3.7160    2.5972    1.0134 H       1  UNL1        0.0583
     36 H          -5.1031    1.6254    0.5065 H       1  UNL1        0.0583
     37 H          -3.8788    2.6950   -1.4297 H       1  UNL1        0.0583
     38 H          -3.8947    0.9342   -1.5498 H       1  UNL1        0.0583
     39 H          -1.4659    1.6137   -2.9132 H       1  UNL1        0.0572
     40 H          -2.0927    0.1164   -2.2013 H       1  UNL1        0.0572
     41 H           0.4163    0.2934   -2.5562 H       1  UNL1        0.0449
     42 H           0.4974    1.4347   -1.2017 H       1  UNL1        0.0449
     43 H           2.8245    0.1151   -2.3963 H       1  UNL1        0.0623
     44 H           4.9751    1.1300   -1.7904 H       1  UNL1        0.0685
@<TRIPOS>UNITY_ATOM_ATTR
2 1
charge 1
3 1
charge -1
@<TRIPOS>BOND
     1     1     2    2
     2     2     3    1
     3     2     4    1
     4     4     5   ar
     5     5     6   ar
     6     6     7   ar
     7     7     8    1
     8     8     9    1
     9     9    10    1
    10    10    11    1
    11    11    12    1
    12    12    13    1
    13    13    14    1
    14    14    15    1
    15    15    16    1
    16    16    17    1
    17    17    18    1
    18    18    19    1
    19    19    20    1
    20     7    21   ar
    21    21    22   ar
    22    22     4   ar
    23    20     9    1
    24     5    23    1
    25     6    24    1
    26     8    25    1
    27     8    26    1
    28    10    27    1
    29    10    28    1
    30    11    29    1
    31    11    30    1
    32    13    31    1
    33    13    32    1
    34    14    33    1
    35    14    34    1
    36    16    35    1
    37    16    36    1
    38    17    37    1
    39    17    38    1
    40    19    39    1
    41    19    40    1
    42    20    41    1
    43    20    42    1
    44    21    43    1
    45    22    44    1
