@<TRIPOS>MOLECULE
*****
 25 26 0 0 0
SMALL
GASTEIGER

@<TRIPOS>ATOM
      1 O          -5.0361    1.6918    0.6407 O.2     1  UNL1        0.0415
      2 N          -4.8333    0.6311    0.0344 N.pl3   1  UNL1        0.0812
      3 O          -5.7186   -0.0672   -0.4791 O.co2   1  UNL1       -0.5760
      4 C          -3.4588    0.1692   -0.0831 C.ar    1  UNL1        0.2911
      5 C          -3.1471   -1.0041   -0.7647 C.ar    1  UNL1        0.0204
      6 C          -1.8085   -1.3944   -0.8431 C.ar    1  UNL1       -0.0152
      7 C          -0.8151   -0.6150   -0.2410 C.ar    1  UNL1        0.1233
      8 N           0.5229   -1.0539   -0.3647 N.pl3   1  UNL1       -0.2994
      9 C           1.7160   -0.3728   -0.0380 C.ar    1  UNL1        0.0325
     10 C           1.8222    1.0237   -0.0345 C.ar    1  UNL1       -0.0391
     11 C           3.0413    1.6572    0.2332 C.ar    1  UNL1       -0.0416
     12 C           4.1783    0.8948    0.4769 C.ar    1  UNL1        0.0411
     13 CL          5.6786    1.6696    0.8031 Cl      1  UNL1       -0.0835
     14 C           4.1079   -0.4940    0.4445 C.ar    1  UNL1       -0.0416
     15 C           2.8860   -1.1207    0.1767 C.ar    1  UNL1       -0.0391
     16 N          -1.1279    0.5263    0.4118 N.ar    1  UNL1       -0.2335
     17 C          -2.4312    0.8995    0.4850 C.ar    1  UNL1        0.1067
     18 H          -3.9145   -1.6125   -1.2367 H       1  UNL1        0.0687
     19 H          -1.5434   -2.2979   -1.3848 H       1  UNL1        0.0654
     20 H           0.5811   -2.0410   -0.1398 H       1  UNL1        0.1536
     21 H           0.9561    1.6445   -0.2472 H       1  UNL1        0.0636
     22 H           3.0902    2.7425    0.2412 H       1  UNL1        0.0633
     23 H           4.9960   -1.0949    0.6196 H       1  UNL1        0.0633
     24 H           2.8590   -2.2070    0.1413 H       1  UNL1        0.0636
     25 H          -2.6012    1.8251    1.0294 H       1  UNL1        0.0900
@<TRIPOS>UNITY_ATOM_ATTR
2 1
charge 1
3 1
charge -1
@<TRIPOS>BOND
     1     1     2    2
     2     2     3    1
     3     2     4    1
     4     4     5   ar
     5     5     6   ar
     6     6     7   ar
     7     7     8    1
     8     8     9    1
     9     9    10   ar
    10    10    11   ar
    11    11    12   ar
    12    12    13    1
    13    12    14   ar
    14    14    15   ar
    15     7    16   ar
    16    16    17   ar
    17    17     4   ar
    18    15     9   ar
    19     5    18    1
    20     6    19    1
    21     8    20    1
    22    10    21    1
    23    11    22    1
    24    14    23    1
    25    15    24    1
    26    17    25    1
