@<TRIPOS>MOLECULE
*****
 30 32 0 0 0
SMALL
GASTEIGER

@<TRIPOS>ATOM
      1 O          -6.9028   -0.3274    0.0182 O.2     1  UNL1        0.0414
      2 N          -6.0515    0.0902   -0.7797 N.pl3   1  UNL1        0.0796
      3 C          -4.6388   -0.0284   -0.3959 C.ar    1  UNL1        0.2733
      4 C          -3.6416    0.4307   -1.2674 C.ar    1  UNL1        0.0176
      5 C          -2.2969    0.3170   -0.9003 C.ar    1  UNL1       -0.0281
      6 C          -4.3001   -0.5997    0.8384 C.ar    1  UNL1        0.0176
      7 C          -2.9544   -0.7118    1.2022 C.ar    1  UNL1       -0.0281
      8 C          -1.9494   -0.2542    0.3347 C.ar    1  UNL1        0.0866
      9 N          -0.5820   -0.3690    0.7060 N.ar    1  UNL1       -0.1497
     10 N           0.4193    0.0601   -0.1019 N.ar    1  UNL1       -0.1471
     11 C           1.5279   -0.2243    0.6020 C.ar    1  UNL1        0.1130
     12 C           1.1269   -0.8203    1.8180 C.ar    1  UNL1        0.0776
     13 N          -0.2017   -0.9138    1.8886 N.ar    1  UNL1       -0.1549
     14 C           2.8744    0.0710    0.1084 C.ar    1  UNL1        0.0037
     15 C           3.0540    0.6753   -1.1463 C.ar    1  UNL1       -0.0525
     16 C           4.3338    0.9623   -1.6287 C.ar    1  UNL1       -0.0611
     17 C           5.4532    0.6489   -0.8628 C.ar    1  UNL1       -0.0617
     18 C           5.2939    0.0492    0.3841 C.ar    1  UNL1       -0.0611
     19 C           4.0133   -0.2384    0.8678 C.ar    1  UNL1       -0.0525
     20 O          -6.3093    0.6009   -1.8790 O.co2   1  UNL1       -0.5760
     21 H          -3.8911    0.8762   -2.2286 H       1  UNL1        0.0686
     22 H          -1.5309    0.6774   -1.5861 H       1  UNL1        0.0641
     23 H          -5.0647   -0.9601    1.5243 H       1  UNL1        0.0686
     24 H          -2.7037   -1.1576    2.1642 H       1  UNL1        0.0641
     25 H           1.7274   -1.1837    2.6399 H       1  UNL1        0.0870
     26 H           2.1933    0.9292   -1.7625 H       1  UNL1        0.0624
     27 H           4.4528    1.4304   -2.6026 H       1  UNL1        0.0618
     28 H           6.4489    0.8720   -1.2376 H       1  UNL1        0.0618
     29 H           6.1682   -0.1957    0.9826 H       1  UNL1        0.0618
     30 H           3.9318   -0.7064    1.8449 H       1  UNL1        0.0624
@<TRIPOS>UNITY_ATOM_ATTR
2 1
charge 1
20 1
charge -1
@<TRIPOS>BOND
     1     1     2    2
     2     2     3    1
     3     3     4   ar
     4     4     5   ar
     5     3     6   ar
     6     6     7   ar
     7     7     8   ar
     8     8     9    1
     9     9    10   ar
    10    10    11   ar
    11    11    12   ar
    12    12    13   ar
    13    11    14    1
    14    14    15   ar
    15    15    16   ar
    16    16    17   ar
    17    17    18   ar
    18    18    19   ar
    19     2    20    1
    20     8     5   ar
    21    13     9   ar
    22    19    14   ar
    23     4    21    1
    24     5    22    1
    25     6    23    1
    26     7    24    1
    27    12    25    1
    28    15    26    1
    29    16    27    1
    30    17    28    1
    31    18    29    1
    32    19    30    1
