@<TRIPOS>MOLECULE
*****
 41 47 0 0 0
SMALL
GASTEIGER

@<TRIPOS>ATOM
      1 SI          4.7633    0.3679   -1.5850 Si      1  UNL1        0.0000
      2 C           6.6384    0.6184   -1.2797 C.2     1  UNL1        0.0000
      3 C           6.9394    0.5229    0.0342 C.2     1  UNL1        0.0000
      4 C           5.8216    0.2629    0.8887 C.ar    1  UNL1        0.0000
      5 C           5.7538    0.1038    2.2463 C.ar    1  UNL1        0.0000
      6 S           4.1250   -0.1916    2.7446 S.2     1  UNL1        0.0000
      7 C           3.5160   -0.1187    1.1267 C.ar    1  UNL1        0.0000
      8 C           4.5479    0.1392    0.2727 C.ar    1  UNL1        0.0000
      9 C           2.0962   -0.2849    0.8802 C.ar    1  UNL1        0.0000
     10 C           1.2575    0.7891    0.5430 C.ar    1  UNL1        0.0000
     11 C          -0.1132    0.6834    0.2856 C.ar    1  UNL1        0.0000
     12 N          -0.7167    1.8292   -0.0168 N.ar    1  UNL1        0.0000
     13 C          -2.0466    1.8171   -0.2774 C.ar    1  UNL1        0.0000
     14 C          -2.8674    0.6937   -0.2617 C.ar    1  UNL1        0.0000
     15 C          -2.2495   -0.5383    0.0547 C.ar    1  UNL1        0.0000
     16 C          -3.0875   -1.6741    0.0699 C.ar    1  UNL1        0.0000
     17 C          -4.4507   -1.5891   -0.2119 C.ar    1  UNL1        0.0000
     18 C          -5.0307   -0.3582   -0.5214 C.ar    1  UNL1        0.0000
     19 C          -6.4002   -0.2627   -0.8061 C.ar    1  UNL1        0.0000
     20 C          -6.9605    0.9688   -1.1118 C.ar    1  UNL1        0.0000
     21 C          -6.1270    2.0662   -1.1220 C.ar    1  UNL1        0.0000
     22 N          -4.8041    2.0065   -0.8524 N.ar    1  UNL1        0.0000
     23 C          -4.2437    0.8096   -0.5516 C.ar    1  UNL1        0.0000
     24 C          -0.8282   -0.5486    0.3359 C.ar    1  UNL1        0.0000
     25 C          -0.0037   -1.6979    0.6714 C.ar    1  UNL1        0.0000
     26 N          -0.4077   -2.9777    0.7791 N.ar    1  UNL1        0.0000
     27 S           0.9115   -3.8933    1.1692 S.2     1  UNL1        0.0000
     28 N           2.0795   -2.7288    1.2154 N.ar    1  UNL1        0.0000
     29 C           1.4809   -1.5564    0.9426 C.ar    1  UNL1        0.0000
     30 H           4.5144   -0.8571   -2.3848 H       1  UNL1        0.0000
     31 H           4.1446    1.6089   -2.1133 H       1  UNL1        0.0000
     32 H           7.3119    0.8070   -2.0999 H       1  UNL1        0.0000
     33 H           7.9457    0.6320    0.4219 H       1  UNL1        0.0000
     34 H           6.5477    0.1420    2.9786 H       1  UNL1        0.0000
     35 H           1.7007    1.7860    0.4841 H       1  UNL1        0.0000
     36 H          -2.4527    2.8006   -0.5126 H       1  UNL1        0.0000
     37 H          -2.6977   -2.6606    0.3045 H       1  UNL1        0.0000
     38 H          -5.0501   -2.4968   -0.1853 H       1  UNL1        0.0000
     39 H          -7.0345   -1.1457   -0.7906 H       1  UNL1        0.0000
     40 H          -8.0164    1.0680   -1.3350 H       1  UNL1        0.0000
     41 H          -6.5069    3.0572   -1.3539 H       1  UNL1        0.0000
@<TRIPOS>BOND
     1     1     2    1
     2     2     3    2
     3     3     4    1
     4     4     5   ar
     5     5     6   ar
     6     6     7   ar
     7     7     8   ar
     8     7     9    1
     9     9    10   ar
    10    10    11   ar
    11    11    12   ar
    12    12    13   ar
    13    13    14   ar
    14    14    15   ar
    15    15    16   ar
    16    16    17   ar
    17    17    18   ar
    18    18    19   ar
    19    19    20   ar
    20    20    21   ar
    21    21    22   ar
    22    22    23   ar
    23    15    24   ar
    24    24    25   ar
    25    25    26   ar
    26    26    27   ar
    27    27    28   ar
    28    28    29   ar
    29     8     1    1
    30    29     9   ar
    31     8     4   ar
    32    24    11   ar
    33    29    25   ar
    34    23    14   ar
    35    23    18   ar
    36     1    30    1
    37     1    31    1
    38     2    32    1
    39     3    33    1
    40     5    34    1
    41    10    35    1
    42    13    36    1
    43    16    37    1
    44    17    38    1
    45    19    39    1
    46    20    40    1
    47    21    41    1
