@<TRIPOS>MOLECULE
*****
 32 34 0 0 0
SMALL
GASTEIGER

@<TRIPOS>ATOM
      1 O           1.7077   -6.5540    3.7718 O.2     1  UNL1        0.0414
      2 N           1.4652   -6.4564    2.5604 N.pl3   1  UNL1        0.0796
      3 C           1.0926   -5.1336    2.0427 C.ar    1  UNL1        0.2732
      4 C           1.0231   -4.0399    2.9165 C.ar    1  UNL1        0.0167
      5 C           0.6680   -2.7827    2.4185 C.ar    1  UNL1       -0.0399
      6 C           0.3845   -2.6194    1.0589 C.ar    1  UNL1        0.0257
      7 C           0.0218   -1.3315    0.5549 C.1     1  UNL1       -0.0610
      8 C          -0.2827   -0.2493    0.1314 C.1     1  UNL1       -0.0610
      9 C          -0.6448    1.0392   -0.3730 C.ar    1  UNL1        0.0259
     10 C           0.3438    1.9130   -0.8330 C.ar    1  UNL1       -0.0386
     11 C           0.0034    3.1820   -1.3312 C.ar    1  UNL1       -0.0167
     12 C           0.9841    4.0725   -1.7975 C.ar    1  UNL1       -0.0540
     13 C           0.6302    5.3298   -2.2895 C.ar    1  UNL1       -0.0612
     14 C          -0.7073    5.7131   -2.3220 C.ar    1  UNL1       -0.0612
     15 C          -1.6948    4.8401   -1.8625 C.ar    1  UNL1       -0.0540
     16 C          -1.3559    3.5718   -1.3644 C.ar    1  UNL1       -0.0178
     17 C          -2.3376    2.6827   -0.8986 C.ar    1  UNL1       -0.0529
     18 C          -1.9842    1.4242   -0.4060 C.ar    1  UNL1       -0.0457
     19 C           0.4553   -3.7141    0.1915 C.ar    1  UNL1       -0.0399
     20 C           0.8095   -4.9756    0.6791 C.ar    1  UNL1        0.0167
     21 O           1.5151   -7.3973    1.7554 O.co2   1  UNL1       -0.5760
     22 H           1.2402   -4.1473    3.9774 H       1  UNL1        0.0686
     23 H           0.6138   -1.9328    3.0964 H       1  UNL1        0.0632
     24 H           1.3865    1.6038   -0.8033 H       1  UNL1        0.0636
     25 H           2.0350    3.7920   -1.7805 H       1  UNL1        0.0624
     26 H           1.3997    6.0091   -2.6472 H       1  UNL1        0.0618
     27 H          -0.9838    6.6920   -2.7050 H       1  UNL1        0.0618
     28 H          -2.7344    5.1583   -1.8962 H       1  UNL1        0.0624
     29 H          -3.3880    2.9647   -0.9162 H       1  UNL1        0.0624
     30 H          -2.7607    0.7513   -0.0503 H       1  UNL1        0.0630
     31 H           0.2354   -3.5905   -0.8673 H       1  UNL1        0.0632
     32 H           0.8593   -5.8154   -0.0111 H       1  UNL1        0.0686
@<TRIPOS>UNITY_ATOM_ATTR
2 1
charge 1
21 1
charge -1
@<TRIPOS>BOND
     1     1     2    2
     2     2     3    1
     3     3     4   ar
     4     4     5   ar
     5     5     6   ar
     6     6     7    1
     7     7     8    3
     8     8     9    1
     9     9    10   ar
    10    10    11   ar
    11    11    12   ar
    12    12    13   ar
    13    13    14   ar
    14    14    15   ar
    15    15    16   ar
    16    16    17   ar
    17    17    18   ar
    18     6    19   ar
    19    19    20   ar
    20     2    21    1
    21    20     3   ar
    22    18     9   ar
    23    16    11   ar
    24     4    22    1
    25     5    23    1
    26    10    24    1
    27    12    25    1
    28    13    26    1
    29    14    27    1
    30    15    28    1
    31    17    29    1
    32    18    30    1
    33    19    31    1
    34    20    32    1
