@<TRIPOS>MOLECULE
*****
 36 37 0 0 0
SMALL
GASTEIGER

@<TRIPOS>ATOM
      1 O           7.8320    0.0042    1.2817 O.2     1  UNL1        0.0414
      2 N           7.3456    0.0554    0.1429 N.pl3   1  UNL1        0.0796
      3 C           5.8858   -0.0385    0.0185 C.ar    1  UNL1        0.2732
      4 C           5.0990   -0.1926    1.1660 C.ar    1  UNL1        0.0161
      5 C           3.7086   -0.2815    1.0414 C.ar    1  UNL1       -0.0482
      6 C           3.0961   -0.2075   -0.2182 C.ar    1  UNL1       -0.0246
      7 C           3.8999   -0.0696   -1.3591 C.ar    1  UNL1       -0.0482
      8 C           5.2910    0.0212   -1.2473 C.ar    1  UNL1        0.0161
      9 C           1.6415   -0.3271   -0.3882 C.2     1  UNL1       -0.0540
     10 C           0.7442    0.2283    0.4425 C.2     1  UNL1       -0.0540
     11 C          -0.7099    0.1076    0.2722 C.ar    1  UNL1       -0.0249
     12 C          -1.5193   -0.0187    1.3997 C.ar    1  UNL1       -0.0528
     13 C          -2.9152   -0.1098    1.2760 C.ar    1  UNL1       -0.0401
     14 C          -3.5665   -0.0563    0.0317 C.ar    1  UNL1        0.0292
     15 N          -4.9570   -0.1655   -0.0878 N.pl3   1  UNL1       -0.3360
     16 C          -5.7868    0.0074    1.1032 C.3     1  UNL1        0.0004
     17 C          -5.5905    0.1928   -1.3555 C.3     1  UNL1        0.0004
     18 C          -2.7263    0.0727   -1.0878 C.ar    1  UNL1       -0.0401
     19 C          -1.3291    0.1635   -0.9753 C.ar    1  UNL1       -0.0528
     20 O           8.0064    0.1807   -0.8981 O.co2   1  UNL1       -0.5760
     21 H           5.5462   -0.2507    2.1562 H       1  UNL1        0.0685
     22 H           3.1100   -0.4213    1.9394 H       1  UNL1        0.0626
     23 H           3.4465   -0.0222   -2.3479 H       1  UNL1        0.0626
     24 H           5.8884    0.1359   -2.1495 H       1  UNL1        0.0685
     25 H           1.3168   -0.9018   -1.2526 H       1  UNL1        0.0624
     26 H           1.0637    0.8032    1.3083 H       1  UNL1        0.0624
     27 H          -1.0795   -0.0629    2.3933 H       1  UNL1        0.0624
     28 H          -3.4781   -0.2280    2.1967 H       1  UNL1        0.0636
     29 H          -6.8514   -0.0956    0.8647 H       1  UNL1        0.0428
     30 H          -5.5723   -0.7632    1.8514 H       1  UNL1        0.0428
     31 H          -5.6418    1.0000    1.5437 H       1  UNL1        0.0428
     32 H          -5.2495   -0.4585   -2.1674 H       1  UNL1        0.0428
     33 H          -6.6779    0.0653   -1.3067 H       1  UNL1        0.0428
     34 H          -5.3920    1.2390   -1.6133 H       1  UNL1        0.0428
     35 H          -3.1359    0.1088   -2.0925 H       1  UNL1        0.0636
     36 H          -0.7427    0.2857   -1.8822 H       1  UNL1        0.0624
@<TRIPOS>UNITY_ATOM_ATTR
2 1
charge 1
20 1
charge -1
@<TRIPOS>BOND
     1     1     2    2
     2     2     3    1
     3     3     4   ar
     4     4     5   ar
     5     5     6   ar
     6     6     7   ar
     7     7     8   ar
     8     6     9    1
     9     9    10    2
    10    10    11    1
    11    11    12   ar
    12    12    13   ar
    13    13    14   ar
    14    14    15    1
    15    15    16    1
    16    15    17    1
    17    14    18   ar
    18    18    19   ar
    19     2    20    1
    20     8     3   ar
    21    19    11   ar
    22     4    21    1
    23     5    22    1
    24     7    23    1
    25     8    24    1
    26     9    25    1
    27    10    26    1
    28    12    27    1
    29    13    28    1
    30    16    29    1
    31    16    30    1
    32    16    31    1
    33    17    32    1
    34    17    33    1
    35    17    34    1
    36    18    35    1
    37    19    36    1
