@<TRIPOS>MOLECULE
*****
 30 32 0 0 0
SMALL
GASTEIGER

@<TRIPOS>ATOM
      1 O          -5.7972    1.5300    1.3866 O.2     1  UNL1        0.0415
      2 N          -5.4858    0.8019    0.4340 N.pl3   1  UNL1        0.0820
      3 C          -4.0814    0.6055    0.2089 C.ar    1  UNL1        0.3038
      4 C          -3.1619    1.6656    0.2873 C.ar    1  UNL1        0.0198
      5 C          -1.7761    1.4579    0.0648 C.ar    1  UNL1       -0.0321
      6 C          -1.2009    0.1959   -0.2310 C.ar    1  UNL1        0.0591
      7 N           0.1644    0.0202   -0.4785 N.pl3   1  UNL1       -0.3379
      8 C           1.0927    0.6153    0.4771 C.3     1  UNL1        0.0344
      9 C           2.4877    0.1105    0.1962 C.ar    1  UNL1       -0.0304
     10 C           3.1850    0.5518   -0.9385 C.ar    1  UNL1       -0.0571
     11 C           4.4705    0.0806   -1.2087 C.ar    1  UNL1       -0.0615
     12 C           5.0701   -0.8395   -0.3511 C.ar    1  UNL1       -0.0617
     13 C           4.3842   -1.2924    0.7745 C.ar    1  UNL1       -0.0615
     14 C           3.0979   -0.8227    1.0466 C.ar    1  UNL1       -0.0571
     15 C          -2.1502   -0.8651   -0.3047 C.ar    1  UNL1        0.1616
     16 N          -1.9363   -2.1640   -0.5575 N.ar    1  UNL1       -0.0468
     17 O          -3.1768   -2.7710   -0.4962 O.2     1  UNL1       -0.2413
     18 N          -4.1764   -1.8669   -0.1899 N.ar    1  UNL1       -0.0419
     19 C          -3.5803   -0.6716   -0.0817 C.ar    1  UNL1        0.2125
     20 O          -6.2798    0.2790   -0.3562 O.co2   1  UNL1       -0.5760
     21 H          -3.5116    2.6741    0.5109 H       1  UNL1        0.0687
     22 H          -1.1274    2.3340    0.1057 H       1  UNL1        0.0639
     23 H           0.3726   -0.9690   -0.6392 H       1  UNL1        0.1465
     24 H           0.8048    0.3601    1.5050 H       1  UNL1        0.0511
     25 H           1.0938    1.7091    0.3981 H       1  UNL1        0.0511
     26 H           2.7202    1.2597   -1.6220 H       1  UNL1        0.0621
     27 H           5.0015    0.4275   -2.0914 H       1  UNL1        0.0618
     28 H           6.0704   -1.2081   -0.5632 H       1  UNL1        0.0618
     29 H           4.8508   -2.0151    1.4391 H       1  UNL1        0.0618
     30 H           2.5757   -1.1931    1.9261 H       1  UNL1        0.0621
@<TRIPOS>UNITY_ATOM_ATTR
2 1
charge 1
20 1
charge -1
@<TRIPOS>BOND
     1     1     2    2
     2     2     3    1
     3     3     4   ar
     4     4     5   ar
     5     5     6   ar
     6     6     7    1
     7     7     8    1
     8     8     9    1
     9     9    10   ar
    10    10    11   ar
    11    11    12   ar
    12    12    13   ar
    13    13    14   ar
    14     6    15   ar
    15    15    16   ar
    16    16    17   ar
    17    17    18   ar
    18    18    19   ar
    19     2    20    1
    20    19     3   ar
    21    14     9   ar
    22    19    15   ar
    23     4    21    1
    24     5    22    1
    25     7    23    1
    26     8    24    1
    27     8    25    1
    28    10    26    1
    29    11    27    1
    30    12    28    1
    31    13    29    1
    32    14    30    1
