@<TRIPOS>MOLECULE
*****
 38 39 0 0 0
SMALL
GASTEIGER

@<TRIPOS>ATOM
      1 O           4.1325   -1.3968    1.0230 O.2     1  UNL1       -0.2706
      2 C           3.8018   -0.2536    0.7126 C.2     1  UNL1        0.2391
      3 C           2.4209    0.0064    0.2342 C.2     1  UNL1        0.0038
      4 C           1.4405   -0.8512    0.5602 C.2     1  UNL1       -0.0142
      5 C           0.1199   -0.6171    0.0983 C.ar    1  UNL1        0.1364
      6 N          -0.3321    0.4228   -0.5912 N.ar    1  UNL1       -0.2101
      7 C          -1.6630    0.2075   -0.7483 C.ar    1  UNL1        0.1685
      8 C          -2.0566   -0.9574   -0.1718 C.ar    1  UNL1        0.1516
      9 C          -3.4096   -1.3966   -0.1654 C.ar    1  UNL1        0.2822
     10 N          -4.2605   -0.5539   -0.8881 N.ar    1  UNL1       -0.2622
     11 C          -5.6614   -0.9216   -0.9432 C.3     1  UNL1        0.0196
     12 C          -3.8965    0.6831   -1.4548 C.ar    1  UNL1        0.3331
     13 N          -2.5493    1.0427   -1.3840 N.ar    1  UNL1       -0.2795
     14 C          -2.0847    2.2857   -1.9696 C.3     1  UNL1        0.0181
     15 O          -4.7370    1.4172   -1.9837 O.2     1  UNL1       -0.2462
     16 O          -3.7855   -2.3970    0.4368 O.2     1  UNL1       -0.2652
     17 N          -0.9122   -1.5095    0.3505 N.ar    1  UNL1       -0.3217
     18 C          -0.8673   -2.7901    1.0179 C.3     1  UNL1        0.0140
     19 N           4.6643    0.8280    0.7698 N.am    1  UNL1       -0.3041
     20 C           6.0677    0.5816    1.0580 C.3     1  UNL1        0.0031
     21 C           4.2886    2.2253    0.6022 C.3     1  UNL1        0.0031
     22 H           2.2372    0.8610   -0.4016 H       1  UNL1        0.0670
     23 H           1.6719   -1.7064    1.1847 H       1  UNL1        0.0656
     24 H          -6.1626   -0.4933   -0.0690 H       1  UNL1        0.0458
     25 H          -5.7828   -2.0082   -0.9230 H       1  UNL1        0.0458
     26 H          -6.1377   -0.5346   -1.8491 H       1  UNL1        0.0458
     27 H          -2.9053    2.8684   -2.3967 H       1  UNL1        0.0458
     28 H          -1.3679    2.0544   -2.7640 H       1  UNL1        0.0458
     29 H          -1.5966    2.8861   -1.1979 H       1  UNL1        0.0458
     30 H          -1.3289   -2.6782    2.0038 H       1  UNL1        0.0456
     31 H          -1.4172   -3.5172    0.4121 H       1  UNL1        0.0456
     32 H           0.1580   -3.1466    1.1221 H       1  UNL1        0.0456
     33 H           6.6772    1.0830    0.2998 H       1  UNL1        0.0428
     34 H           6.3003    0.9952    2.0446 H       1  UNL1        0.0428
     35 H           6.3114   -0.4843    1.0540 H       1  UNL1        0.0428
     36 H           4.6121    2.5542   -0.3884 H       1  UNL1        0.0428
     37 H           4.7952    2.8255    1.3638 H       1  UNL1        0.0428
     38 H           3.2150    2.3853    0.7116 H       1  UNL1        0.0428
@<TRIPOS>BOND
     1     1     2    2
     2     2     3    1
     3     3     4    2
     4     4     5    1
     5     5     6   ar
     6     6     7   ar
     7     7     8   ar
     8     8     9   ar
     9     9    10   ar
    10    10    11    1
    11    10    12   ar
    12    12    13   ar
    13    13    14    1
    14    12    15    2
    15     9    16    2
    16     8    17   ar
    17    17    18    1
    18     2    19   am
    19    19    20    1
    20    19    21    1
    21    17     5   ar
    22    13     7   ar
    23     3    22    1
    24     4    23    1
    25    11    24    1
    26    11    25    1
    27    11    26    1
    28    14    27    1
    29    14    28    1
    30    14    29    1
    31    18    30    1
    32    18    31    1
    33    18    32    1
    34    20    33    1
    35    20    34    1
    36    20    35    1
    37    21    36    1
    38    21    37    1
    39    21    38    1
