@<TRIPOS>MOLECULE
*****
 34 35 0 0 0
SMALL
GASTEIGER

@<TRIPOS>ATOM
      1 O           4.8574    0.8975    1.8935 O.2     1  UNL1       -0.2456
      2 C           4.2888    0.3595    0.9554 C.2     1  UNL1        0.3318
      3 C           2.8191    0.3813    0.8223 C.2     1  UNL1        0.0259
      4 C           2.1475   -0.1951   -0.1857 C.2     1  UNL1       -0.0123
      5 C           0.7390   -0.0901   -0.2879 C.ar    1  UNL1        0.1364
      6 N           0.0464    0.4371   -1.2833 N.ar    1  UNL1       -0.2101
      7 C          -1.2562    0.3312   -0.9124 C.ar    1  UNL1        0.1685
      8 C          -1.3921   -0.2863    0.2912 C.ar    1  UNL1        0.1516
      9 C          -2.6548   -0.5062    0.9095 C.ar    1  UNL1        0.2822
     10 N          -3.7264   -0.0500    0.1361 N.ar    1  UNL1       -0.2622
     11 C          -5.0676   -0.2180    0.6609 C.3     1  UNL1        0.0196
     12 C          -3.6214    0.6050   -1.1082 C.ar    1  UNL1        0.3331
     13 N          -2.3392    0.7812   -1.6278 N.ar    1  UNL1       -0.2795
     14 C          -2.1436    1.4453   -2.9038 C.3     1  UNL1        0.0181
     15 O          -4.6272    1.0039   -1.7027 O.2     1  UNL1       -0.2462
     16 O          -2.7734   -1.0342    2.0112 O.2     1  UNL1       -0.2652
     17 N          -0.1144   -0.6011    0.6788 N.ar    1  UNL1       -0.3217
     18 C           0.2278   -1.3648    1.8573 C.3     1  UNL1        0.0140
     19 O           4.8801   -0.3229   -0.0532 O.3     1  UNL1       -0.4649
     20 C           6.3052   -0.3643    0.0326 C.3     1  UNL1        0.0820
     21 H           2.3159    0.9275    1.6134 H       1  UNL1        0.0690
     22 H           2.6626   -0.6756   -1.0123 H       1  UNL1        0.0656
     23 H          -5.4927    0.7711    0.8607 H       1  UNL1        0.0458
     24 H          -5.6897   -0.7167   -0.0896 H       1  UNL1        0.0458
     25 H          -5.0874   -0.8062    1.5817 H       1  UNL1        0.0458
     26 H          -1.6109    0.7703   -3.5812 H       1  UNL1        0.0458
     27 H          -3.0930    1.7260   -3.3674 H       1  UNL1        0.0458
     28 H          -1.5498    2.3513   -2.7466 H       1  UNL1        0.0458
     29 H           0.2048   -0.6925    2.7182 H       1  UNL1        0.0456
     30 H           1.2184   -1.8101    1.7460 H       1  UNL1        0.0456
     31 H          -0.4940   -2.1758    1.9809 H       1  UNL1        0.0456
     32 H           6.7217    0.6472   -0.0047 H       1  UNL1        0.0661
     33 H           6.6191   -0.8803    0.9454 H       1  UNL1        0.0661
     34 H           6.6801   -0.9248   -0.8283 H       1  UNL1        0.0661
@<TRIPOS>BOND
     1     1     2    2
     2     2     3    1
     3     3     4    2
     4     4     5    1
     5     5     6   ar
     6     6     7   ar
     7     7     8   ar
     8     8     9   ar
     9     9    10   ar
    10    10    11    1
    11    10    12   ar
    12    12    13   ar
    13    13    14    1
    14    12    15    2
    15     9    16    2
    16     8    17   ar
    17    17    18    1
    18     2    19    1
    19    19    20    1
    20    17     5   ar
    21    13     7   ar
    22     3    21    1
    23     4    22    1
    24    11    23    1
    25    11    24    1
    26    11    25    1
    27    14    26    1
    28    14    27    1
    29    14    28    1
    30    18    29    1
    31    18    30    1
    32    18    31    1
    33    20    32    1
    34    20    33    1
    35    20    34    1
