@<TRIPOS>MOLECULE
*****
 43 44 0 0 0
SMALL
GASTEIGER

@<TRIPOS>ATOM
      1 O           3.2889   -1.5039    2.0778 O.2     1  UNL1       -0.2456
      2 C           2.7627   -0.7865    1.2426 C.2     1  UNL1        0.3325
      3 C           1.3004   -0.7702    1.0406 C.2     1  UNL1        0.0260
      4 C           0.6685   -0.0043    0.1371 C.2     1  UNL1       -0.0123
      5 C          -0.7449   -0.0782    0.0231 C.ar    1  UNL1        0.1364
      6 N          -1.5754   -0.9126    0.6301 N.ar    1  UNL1       -0.2101
      7 C          -2.8079   -0.6198    0.1426 C.ar    1  UNL1        0.1685
      8 C          -2.7691    0.3983   -0.7579 C.ar    1  UNL1        0.1516
      9 C          -3.9292    0.8692   -1.4368 C.ar    1  UNL1        0.2822
     10 N          -5.0992    0.2158   -1.0370 N.ar    1  UNL1       -0.2622
     11 C          -6.3469    0.6135   -1.6597 C.3     1  UNL1        0.0196
     12 C          -5.1694   -0.8579   -0.1268 C.ar    1  UNL1        0.3331
     13 N          -3.9775   -1.2590    0.4753 N.ar    1  UNL1       -0.2795
     14 C          -3.9629   -2.3562    1.4259 C.3     1  UNL1        0.0181
     15 O          -6.2434   -1.4161    0.1162 O.2     1  UNL1       -0.2462
     16 O          -3.8922    1.7480   -2.2930 O.2     1  UNL1       -0.2652
     17 N          -1.4511    0.7782   -0.8114 N.ar    1  UNL1       -0.3217
     18 C          -0.9292    1.8753   -1.5943 C.3     1  UNL1        0.0140
     19 O           3.3843    0.0736    0.4029 O.3     1  UNL1       -0.4558
     20 C           4.8280    0.2183    0.4293 C.3     1  UNL1        0.1055
     21 C           5.1334    1.2660   -0.6520 C.3     1  UNL1       -0.0254
     22 C           5.3090    0.7555    1.7816 C.3     1  UNL1       -0.0254
     23 C           5.5260   -1.0929    0.0521 C.3     1  UNL1       -0.0254
     24 H           0.7562   -1.4445    1.6958 H       1  UNL1        0.0690
     25 H           1.2356    0.6532   -0.5119 H       1  UNL1        0.0656
     26 H          -6.6669   -0.1842   -2.3380 H       1  UNL1        0.0458
     27 H          -7.1157    0.7453   -0.8913 H       1  UNL1        0.0458
     28 H          -6.2526    1.5448   -2.2241 H       1  UNL1        0.0458
     29 H          -4.9680   -2.7372    1.6246 H       1  UNL1        0.0458
     30 H          -3.5294   -2.0085    2.3690 H       1  UNL1        0.0458
     31 H          -3.3538   -3.1701    1.0200 H       1  UNL1        0.0458
     32 H          -1.6968    2.6406   -1.7208 H       1  UNL1        0.0456
     33 H          -0.0894    2.3369   -1.0703 H       1  UNL1        0.0456
     34 H          -0.6127    1.4829   -2.5634 H       1  UNL1        0.0456
     35 H           4.7692    0.9330   -1.6310 H       1  UNL1        0.0268
     36 H           6.2068    1.4673   -0.7324 H       1  UNL1        0.0268
     37 H           4.6192    2.2099   -0.4362 H       1  UNL1        0.0268
     38 H           4.7372    1.6438    2.0727 H       1  UNL1        0.0268
     39 H           6.3715    1.0200    1.7501 H       1  UNL1        0.0268
     40 H           5.1783    0.0220    2.5829 H       1  UNL1        0.0268
     41 H           5.1069   -1.5042   -0.8731 H       1  UNL1        0.0268
     42 H           6.6022   -0.9452   -0.0885 H       1  UNL1        0.0268
     43 H           5.3991   -1.8599    0.8220 H       1  UNL1        0.0268
@<TRIPOS>BOND
     1     1     2    2
     2     2     3    1
     3     3     4    2
     4     4     5    1
     5     5     6   ar
     6     6     7   ar
     7     7     8   ar
     8     8     9   ar
     9     9    10   ar
    10    10    11    1
    11    10    12   ar
    12    12    13   ar
    13    13    14    1
    14    12    15    2
    15     9    16    2
    16     8    17   ar
    17    17    18    1
    18     2    19    1
    19    19    20    1
    20    20    21    1
    21    20    22    1
    22    20    23    1
    23    17     5   ar
    24    13     7   ar
    25     3    24    1
    26     4    25    1
    27    11    26    1
    28    11    27    1
    29    11    28    1
    30    14    29    1
    31    14    30    1
    32    14    31    1
    33    18    32    1
    34    18    33    1
    35    18    34    1
    36    21    35    1
    37    21    36    1
    38    21    37    1
    39    22    38    1
    40    22    39    1
    41    22    40    1
    42    23    41    1
    43    23    42    1
    44    23    43    1
