@<TRIPOS>MOLECULE
*****
 30 32 0 0 0
SMALL
GASTEIGER

@<TRIPOS>ATOM
      1 O           4.6391   -0.8629   -1.2777 O.2     1  UNL1       -0.2450
      2 C           4.0448   -0.2363   -0.4150 C.2     1  UNL1        0.3390
      3 C           2.5677   -0.2861   -0.2406 C.ar    1  UNL1        0.0602
      4 C           1.9020    0.4538    0.7424 C.ar    1  UNL1       -0.0472
      5 C           0.5118    0.3700    0.8615 C.ar    1  UNL1       -0.0536
      6 C           1.8276   -1.1091   -1.1011 C.ar    1  UNL1       -0.0298
      7 C           0.4310   -1.1968   -0.9845 C.ar    1  UNL1        0.0587
      8 C          -0.2757   -2.0590   -1.8910 C.1     1  UNL1        0.0997
      9 N          -0.8102   -2.7485   -2.6576 N.1     1  UNL1       -0.1909
     10 C          -0.2378   -0.4520    0.0039 C.ar    1  UNL1       -0.0166
     11 C          -1.6952   -0.4895    0.1806 C.ar    1  UNL1       -0.0533
     12 C          -2.5371    0.1348   -0.6866 C.ar    1  UNL1        0.0586
     13 N          -3.7709   -0.1317   -0.1948 N.ar    1  UNL1       -0.1378
     14 C          -5.1197    0.0455   -0.4040 C.ar    1  UNL1        0.0741
     15 C          -5.8412   -0.6528    0.6622 C.ar    1  UNL1        0.0257
     16 C          -4.8272   -1.2618    1.5217 C.ar    1  UNL1        0.1932
     17 N          -3.6020   -0.9395    1.0013 N.ar    1  UNL1       -0.1438
     18 N          -2.1960   -1.1846    1.2657 N.ar    1  UNL1       -0.3780
     19 O           4.6103    0.5871    0.5017 O.3     1  UNL1       -0.4645
     20 C           6.0317    0.6824    0.3964 C.3     1  UNL1        0.0820
     21 H           2.4479    1.0994    1.4264 H       1  UNL1        0.0626
     22 H           0.0082    0.9498    1.6341 H       1  UNL1        0.0624
     23 H           2.3434   -1.6889   -1.8671 H       1  UNL1        0.0639
     24 H          -2.3511    0.7127   -1.5769 H       1  UNL1        0.0858
     25 H          -5.4829    0.6112   -1.2453 H       1  UNL1        0.0871
     26 H          -6.9116   -0.7108    0.7829 H       1  UNL1        0.0694
     27 H          -4.9027   -1.8663    2.4060 H       1  UNL1        0.1398
     28 H           6.3172    1.0931   -0.5771 H       1  UNL1        0.0661
     29 H           6.4946   -0.2965    0.5562 H       1  UNL1        0.0661
     30 H           6.3839    1.3633    1.1762 H       1  UNL1        0.0661
@<TRIPOS>UNITY_ATOM_ATTR
17 1
charge 1
18 1
charge -1
@<TRIPOS>BOND
     1     1     2    2
     2     2     3    1
     3     3     4   ar
     4     4     5   ar
     5     3     6   ar
     6     6     7   ar
     7     7     8    1
     8     8     9    3
     9     7    10   ar
    10    10    11    1
    11    11    12   ar
    12    12    13   ar
    13    13    14   ar
    14    14    15   ar
    15    15    16   ar
    16    16    17   ar
    17    17    18   ar
    18     2    19    1
    19    19    20    1
    20    10     5   ar
    21    18    11   ar
    22    17    13   ar
    23     4    21    1
    24     5    22    1
    25     6    23    1
    26    12    24    1
    27    14    25    1
    28    15    26    1
    29    16    27    1
    30    20    28    1
    31    20    29    1
    32    20    30    1
