@<TRIPOS>MOLECULE
*****
 29 31 0 0 0
SMALL
GASTEIGER

@<TRIPOS>ATOM
      1 O           4.4836    1.5535   -1.0020 O.2     1  UNL1       -0.2450
      2 C           3.9611    0.7983   -0.1971 C.2     1  UNL1        0.3389
      3 C           2.4949    0.5505   -0.1303 C.ar    1  UNL1        0.0590
      4 C           1.6677    1.2268   -1.0353 C.ar    1  UNL1       -0.0472
      5 C           0.2836    1.0280   -1.0112 C.ar    1  UNL1       -0.0548
      6 C           1.9211   -0.3259    0.7995 C.ar    1  UNL1       -0.0472
      7 C           0.5356   -0.5230    0.8192 C.ar    1  UNL1       -0.0548
      8 C          -0.2965    0.1490   -0.0868 C.ar    1  UNL1       -0.0340
      9 C          -1.7507   -0.0614   -0.0660 C.ar    1  UNL1       -0.0545
     10 C          -2.2906   -1.3058   -0.1717 C.ar    1  UNL1        0.0585
     11 N          -3.6287   -1.0953   -0.1203 N.ar    1  UNL1       -0.1378
     12 C          -4.8605   -1.7075   -0.1526 C.ar    1  UNL1        0.0741
     13 C          -5.8876   -0.6700   -0.0341 C.ar    1  UNL1        0.0257
     14 C          -5.1805    0.6056    0.0703 C.ar    1  UNL1        0.1932
     15 N          -3.8392    0.3354    0.0173 N.ar    1  UNL1       -0.1438
     16 N          -2.5738    1.0447    0.0522 N.ar    1  UNL1       -0.3780
     17 O           4.6137    0.0742    0.7473 O.3     1  UNL1       -0.4645
     18 C           6.0292    0.2627    0.7456 C.3     1  UNL1        0.0820
     19 H           2.0939    1.9137   -1.7637 H       1  UNL1        0.0626
     20 H          -0.3428    1.5614   -1.7234 H       1  UNL1        0.0623
     21 H           2.5357   -0.8595    1.5197 H       1  UNL1        0.0626
     22 H           0.1076   -1.1944    1.5604 H       1  UNL1        0.0623
     23 H          -1.8327   -2.2750   -0.2800 H       1  UNL1        0.0858
     24 H          -4.9483   -2.7761   -0.2522 H       1  UNL1        0.0871
     25 H          -6.9558   -0.8203   -0.0265 H       1  UNL1        0.0694
     26 H          -5.5294    1.6161    0.1711 H       1  UNL1        0.1398
     27 H           6.4573   -0.0549   -0.2104 H       1  UNL1        0.0661
     28 H           6.2774    1.3081    0.9545 H       1  UNL1        0.0661
     29 H           6.4545   -0.3588    1.5385 H       1  UNL1        0.0661
@<TRIPOS>UNITY_ATOM_ATTR
15 1
charge 1
16 1
charge -1
@<TRIPOS>BOND
     1     1     2    2
     2     2     3    1
     3     3     4   ar
     4     4     5   ar
     5     3     6   ar
     6     6     7   ar
     7     7     8   ar
     8     8     9    1
     9     9    10   ar
    10    10    11   ar
    11    11    12   ar
    12    12    13   ar
    13    13    14   ar
    14    14    15   ar
    15    15    16   ar
    16     2    17    1
    17    17    18    1
    18     8     5   ar
    19    16     9   ar
    20    15    11   ar
    21     4    19    1
    22     5    20    1
    23     6    21    1
    24     7    22    1
    25    10    23    1
    26    12    24    1
    27    13    25    1
    28    14    26    1
    29    18    27    1
    30    18    28    1
    31    18    29    1
