@<TRIPOS>MOLECULE
*****
 31 33 0 0 0
SMALL
GASTEIGER

@<TRIPOS>ATOM
      1 O           4.4106   -1.7199   -1.2373 O.2     1  UNL1       -0.2450
      2 C           3.9565   -0.6450   -0.8812 C.2     1  UNL1        0.3390
      3 C           2.5202   -0.4356   -0.5519 C.ar    1  UNL1        0.0614
      4 C           1.6561   -1.5331   -0.6391 C.ar    1  UNL1       -0.0298
      5 C           0.2913   -1.3968   -0.3408 C.ar    1  UNL1        0.0599
      6 C          -0.5431   -2.5633   -0.4530 C.1     1  UNL1        0.0998
      7 N          -1.1778   -3.5275   -0.5762 N.1     1  UNL1       -0.1909
      8 C           2.0110    0.8087   -0.1652 C.ar    1  UNL1       -0.0298
      9 C           0.6473    0.9596    0.1357 C.ar    1  UNL1        0.0599
     10 C           0.1854    2.2665    0.5215 C.1     1  UNL1        0.0998
     11 N          -0.1328    3.3453    0.8090 N.1     1  UNL1       -0.1909
     12 C          -0.2271   -0.1449    0.0521 C.ar    1  UNL1        0.0008
     13 C          -1.6545    0.0067    0.3717 C.ar    1  UNL1       -0.0521
     14 C          -2.5774    0.3085   -0.5811 C.ar    1  UNL1        0.0586
     15 N          -3.7449    0.3580    0.1023 N.ar    1  UNL1       -0.1378
     16 C          -5.0999    0.5731   -0.0136 C.ar    1  UNL1        0.0741
     17 C          -5.7001    0.4251    1.3141 C.ar    1  UNL1        0.0257
     18 C          -4.6079    0.1060    2.2320 C.ar    1  UNL1        0.1932
     19 N          -3.4527    0.0699    1.4969 N.ar    1  UNL1       -0.1438
     20 N          -2.0347   -0.1700    1.6886 N.ar    1  UNL1       -0.3779
     21 O           4.6543    0.5062   -0.7295 O.3     1  UNL1       -0.4644
     22 C           6.0471    0.3841   -1.0254 C.3     1  UNL1        0.0820
     23 H           2.0488   -2.5056   -0.9407 H       1  UNL1        0.0639
     24 H           2.6697    1.6740   -0.0931 H       1  UNL1        0.0639
     25 H          -2.4896    0.4815   -1.6411 H       1  UNL1        0.0858
     26 H          -5.5480    0.8046   -0.9651 H       1  UNL1        0.0871
     27 H          -6.7444    0.5309    1.5630 H       1  UNL1        0.0694
     28 H          -4.5891   -0.0839    3.2887 H       1  UNL1        0.1398
     29 H           6.1924    0.0923   -2.0703 H       1  UNL1        0.0661
     30 H           6.5203   -0.3366   -0.3512 H       1  UNL1        0.0661
     31 H           6.5129    1.3612   -0.8705 H       1  UNL1        0.0661
@<TRIPOS>UNITY_ATOM_ATTR
19 1
charge 1
20 1
charge -1
@<TRIPOS>BOND
     1     1     2    2
     2     2     3    1
     3     3     4   ar
     4     4     5   ar
     5     5     6    1
     6     6     7    3
     7     3     8   ar
     8     8     9   ar
     9     9    10    1
    10    10    11    3
    11     9    12   ar
    12    12    13    1
    13    13    14   ar
    14    14    15   ar
    15    15    16   ar
    16    16    17   ar
    17    17    18   ar
    18    18    19   ar
    19    19    20   ar
    20     2    21    1
    21    21    22    1
    22    12     5   ar
    23    20    13   ar
    24    19    15   ar
    25     4    23    1
    26     8    24    1
    27    14    25    1
    28    16    26    1
    29    17    27    1
    30    18    28    1
    31    22    29    1
    32    22    30    1
    33    22    31    1
