@<TRIPOS>MOLECULE
*****
 41 43 0 0 0
SMALL
GASTEIGER

@<TRIPOS>ATOM
      1 O           0.0719    0.4396    2.1833 O.2     1  UNL1       -0.2740
      2 C          -0.2929    0.2994    1.0076 C.2     1  UNL1        0.2334
      3 C           0.7452    0.4978   -0.1222 C.3     1  UNL1        0.1110
      4 S           0.9922   -1.1141   -0.9929 S.3     1  UNL1       -0.1077
      5 C           2.1981   -1.8724    0.0781 C.ar    1  UNL1        0.0089
      6 C           3.5149   -2.0158   -0.3704 C.ar    1  UNL1       -0.0483
      7 C           4.4763   -2.6176    0.4446 C.ar    1  UNL1       -0.0607
      8 C           4.1239   -3.0853    1.7091 C.ar    1  UNL1       -0.0617
      9 C           2.8104   -2.9561    2.1570 C.ar    1  UNL1       -0.0607
     10 C           1.8481   -2.3567    1.3415 C.ar    1  UNL1       -0.0483
     11 C           0.4708    1.7200   -1.0024 C.ar    1  UNL1       -0.0254
     12 C           0.6471    1.7292   -2.3966 C.ar    1  UNL1       -0.0570
     13 C           0.4044    2.8840   -3.1472 C.ar    1  UNL1       -0.0615
     14 C           0.0000    4.0576   -2.5187 C.ar    1  UNL1       -0.0617
     15 C          -0.1523    4.0822   -1.1369 C.ar    1  UNL1       -0.0615
     16 C           0.0898    2.9294   -0.3862 C.ar    1  UNL1       -0.0570
     17 N          -1.6116   -0.0503    0.7186 N.am    1  UNL1       -0.2959
     18 C          -2.5528   -0.1263    1.8407 C.3     1  UNL1        0.0382
     19 C          -3.7231   -1.0659    1.5419 C.3     1  UNL1        0.0635
     20 O          -4.3710   -0.7124    0.3121 O.3     1  UNL1       -0.3767
     21 C          -3.4446   -0.8050   -0.7785 C.3     1  UNL1        0.0635
     22 C          -2.2613    0.1487   -0.5844 C.3     1  UNL1        0.0382
     23 H           1.7024    0.7248    0.3675 H       1  UNL1        0.0560
     24 H           3.8047   -1.6598   -1.3562 H       1  UNL1        0.0629
     25 H           5.4990   -2.7221    0.0915 H       1  UNL1        0.0618
     26 H           4.8715   -3.5535    2.3446 H       1  UNL1        0.0618
     27 H           2.5322   -3.3227    3.1419 H       1  UNL1        0.0618
     28 H           0.8278   -2.2752    1.7082 H       1  UNL1        0.0629
     29 H           0.9790    0.8432   -2.9323 H       1  UNL1        0.0621
     30 H           0.5412    2.8662   -4.2257 H       1  UNL1        0.0618
     31 H          -0.1842    4.9545   -3.1040 H       1  UNL1        0.0618
     32 H          -0.4520    5.0009   -0.6388 H       1  UNL1        0.0618
     33 H          -0.0201    2.9891    0.6965 H       1  UNL1        0.0621
     34 H          -2.9235    0.8929    2.0046 H       1  UNL1        0.0487
     35 H          -2.0442   -0.4532    2.7534 H       1  UNL1        0.0487
     36 H          -3.3854   -2.1073    1.4799 H       1  UNL1        0.0575
     37 H          -4.4666   -1.0030    2.3425 H       1  UNL1        0.0575
     38 H          -3.1013   -1.8426   -0.8683 H       1  UNL1        0.0575
     39 H          -3.9825   -0.5502   -1.6970 H       1  UNL1        0.0575
     40 H          -2.6175    1.1858   -0.5960 H       1  UNL1        0.0487
     41 H          -1.5642    0.0222   -1.4105 H       1  UNL1        0.0487
@<TRIPOS>BOND
     1     1     2    2
     2     2     3    1
     3     3     4    1
     4     4     5    1
     5     5     6   ar
     6     6     7   ar
     7     7     8   ar
     8     8     9   ar
     9     9    10   ar
    10     3    11    1
    11    11    12   ar
    12    12    13   ar
    13    13    14   ar
    14    14    15   ar
    15    15    16   ar
    16     2    17   am
    17    17    18    1
    18    18    19    1
    19    19    20    1
    20    20    21    1
    21    21    22    1
    22    10     5   ar
    23    16    11   ar
    24    22    17    1
    25     3    23    1
    26     6    24    1
    27     7    25    1
    28     8    26    1
    29     9    27    1
    30    10    28    1
    31    12    29    1
    32    13    30    1
    33    14    31    1
    34    15    32    1
    35    16    33    1
    36    18    34    1
    37    18    35    1
    38    19    36    1
    39    19    37    1
    40    21    38    1
    41    21    39    1
    42    22    40    1
    43    22    41    1
