@<TRIPOS>MOLECULE
*****
 35 40 0 0 0
SMALL
GASTEIGER

@<TRIPOS>ATOM
      1 SI          4.7675    0.2838   -1.5135 Si      1  UNL1        0.0000
      2 C           6.4979    0.2529   -0.7099 C.2     1  UNL1        0.0000
      3 C           6.4092    0.1172    0.6302 C.2     1  UNL1        0.0000
      4 C           5.0743    0.0290    1.1392 C.ar    1  UNL1        0.0000
      5 C           4.6341   -0.1112    2.4254 C.ar    1  UNL1        0.0000
      6 S           2.9145   -0.1645    2.4729 S.2     1  UNL1        0.0000
      7 C           2.7486    0.0021    0.7459 C.ar    1  UNL1        0.0000
      8 C           4.0006    0.0915    0.2029 C.ar    1  UNL1        0.0000
      9 C           1.4471    0.0262    0.1302 C.ar    1  UNL1        0.0000
     10 C           1.0618    0.1444   -1.2006 C.ar    1  UNL1        0.0000
     11 C          -0.3506    0.1112   -1.2576 C.ar    1  UNL1        0.0000
     12 N          -1.2052    0.1885   -2.2992 N.ar    1  UNL1        0.0000
     13 C          -2.5436    0.1291   -2.0655 C.ar    1  UNL1        0.0000
     14 C          -3.1382   -0.0104   -0.7934 C.ar    1  UNL1        0.0000
     15 C          -4.5162   -0.0908   -0.3561 C.ar    1  UNL1        0.0000
     16 C          -5.7145   -0.0530   -1.0893 C.ar    1  UNL1        0.0000
     17 N          -6.9183   -0.1453   -0.4787 N.ar    1  UNL1        0.0000
     18 C          -6.9637   -0.2761    0.8598 C.ar    1  UNL1        0.0000
     19 C          -5.8514   -0.3245    1.6775 C.ar    1  UNL1        0.0000
     20 C          -4.6114   -0.2280    1.0352 C.ar    1  UNL1        0.0000
     21 S          -3.0536   -0.2567    1.7761 S.2     1  UNL1        0.0000
     22 C          -2.2925   -0.0919    0.2901 C.ar    1  UNL1        0.0000
     23 C          -0.7861   -0.0254    0.0311 C.ar    1  UNL1        0.0000
     24 N           0.2795   -0.0772    0.8686 N.ar    1  UNL1        0.0000
     25 H           4.5762   -0.8924   -2.3979 H       1  UNL1        0.0000
     26 H           4.5059    1.5985   -2.1503 H       1  UNL1        0.0000
     27 H           7.3912    0.3375   -1.3072 H       1  UNL1        0.0000
     28 H           7.2760    0.0771    1.2801 H       1  UNL1        0.0000
     29 H           5.2097   -0.1854    3.3373 H       1  UNL1        0.0000
     30 H           1.7061    0.2449   -2.0597 H       1  UNL1        0.0000
     31 H          -3.1546    0.1990   -2.9619 H       1  UNL1        0.0000
     32 H          -5.7408    0.0508   -2.1690 H       1  UNL1        0.0000
     33 H          -7.9636   -0.3446    1.2811 H       1  UNL1        0.0000
     34 H          -5.9377   -0.4308    2.7518 H       1  UNL1        0.0000
     35 H           0.2422   -0.1756    1.8744 H       1  UNL1        0.0000
@<TRIPOS>BOND
     1     1     2    1
     2     2     3    2
     3     3     4    1
     4     4     5   ar
     5     5     6   ar
     6     6     7   ar
     7     7     8   ar
     8     7     9    1
     9     9    10   ar
    10    10    11   ar
    11    11    12   ar
    12    12    13   ar
    13    13    14   ar
    14    14    15   ar
    15    15    16   ar
    16    16    17   ar
    17    17    18   ar
    18    18    19   ar
    19    19    20   ar
    20    20    21   ar
    21    21    22   ar
    22    22    23   ar
    23    23    24   ar
    24     8     1    1
    25    24     9   ar
    26     8     4   ar
    27    23    11   ar
    28    22    14   ar
    29    20    15   ar
    30     1    25    1
    31     1    26    1
    32     2    27    1
    33     3    28    1
    34     5    29    1
    35    10    30    1
    36    13    31    1
    37    16    32    1
    38    18    33    1
    39    19    34    1
    40    24    35    1
