@<TRIPOS>MOLECULE
*****
 40 43 0 0 0
SMALL
GASTEIGER

@<TRIPOS>ATOM
      1 O           3.5724   -2.8048    2.0148 O.2     1  UNL1       -0.2924
      2 C           3.3540   -2.3463    0.8951 C.2     1  UNL1        0.1601
      3 C           4.0078   -2.9338   -0.3281 C.3     1  UNL1       -0.0014
      4 C           2.4275   -1.1870    0.7333 C.ar    1  UNL1        0.0171
      5 C           2.2260   -0.5596   -0.5013 C.ar    1  UNL1       -0.0507
      6 C           1.3314    0.5108   -0.6074 C.ar    1  UNL1       -0.0520
      7 C           1.7406   -0.7196    1.8616 C.ar    1  UNL1       -0.0507
      8 C           0.8441    0.3468    1.7535 C.ar    1  UNL1       -0.0520
      9 C           0.6181    0.9557    0.5129 C.ar    1  UNL1       -0.0011
     10 C          -0.3370    2.0668    0.3896 C.ar    1  UNL1        0.0557
     11 C           0.0531    3.2692    0.8689 C.ar    1  UNL1       -0.0371
     12 C          -0.8227    4.4203    0.7471 C.ar    1  UNL1       -0.0578
     13 C          -2.0165    4.3314    0.1367 C.ar    1  UNL1       -0.0362
     14 C          -2.4359    3.0817   -0.3901 C.ar    1  UNL1        0.0666
     15 C          -3.5331    2.6468   -1.0881 C.ar    1  UNL1        0.0538
     16 N          -3.4381    1.3123   -1.3547 N.ar    1  UNL1       -0.2349
     17 C          -2.3076    0.8986   -0.8022 C.ar    1  UNL1        0.1456
     18 C          -1.8835   -0.5002   -0.8191 C.ar    1  UNL1        0.0178
     19 C          -1.5311   -1.1061   -2.0319 C.ar    1  UNL1       -0.0511
     20 C          -1.1282   -2.4428   -2.0637 C.ar    1  UNL1       -0.0611
     21 C          -1.0902   -3.1870   -0.8854 C.ar    1  UNL1       -0.0617
     22 C          -1.4685   -2.6011    0.3219 C.ar    1  UNL1       -0.0611
     23 C          -1.8740   -1.2649    0.3540 C.ar    1  UNL1       -0.0511
     24 N          -1.6065    1.9673   -0.2324 N.ar    1  UNL1       -0.2922
     25 H           3.2507   -3.2408   -1.0544 H       1  UNL1        0.0309
     26 H           4.5750   -3.8242   -0.0392 H       1  UNL1        0.0309
     27 H           4.7020   -2.2131   -0.7676 H       1  UNL1        0.0309
     28 H           2.7445   -0.8848   -1.3981 H       1  UNL1        0.0625
     29 H           1.1812    0.9830   -1.5765 H       1  UNL1        0.0624
     30 H           1.8922   -1.1920    2.8307 H       1  UNL1        0.0625
     31 H           0.3118    0.6842    2.6404 H       1  UNL1        0.0624
     32 H           1.0196    3.4230    1.3410 H       1  UNL1        0.0638
     33 H          -0.4788    5.3649    1.1582 H       1  UNL1        0.0619
     34 H          -2.6617    5.1995    0.0425 H       1  UNL1        0.0639
     35 H          -4.3879    3.2248   -1.4143 H       1  UNL1        0.0851
     36 H          -1.5762   -0.5355   -2.9570 H       1  UNL1        0.0625
     37 H          -0.8556   -2.9047   -3.0088 H       1  UNL1        0.0618
     38 H          -0.7816   -4.2290   -0.9093 H       1  UNL1        0.0618
     39 H          -1.4543   -3.1856    1.2382 H       1  UNL1        0.0618
     40 H          -2.1828   -0.8244    1.2988 H       1  UNL1        0.0625
@<TRIPOS>BOND
     1     1     2    2
     2     2     3    1
     3     2     4    1
     4     4     5   ar
     5     5     6   ar
     6     4     7   ar
     7     7     8   ar
     8     8     9   ar
     9     9    10    1
    10    10    11   ar
    11    11    12   ar
    12    12    13   ar
    13    13    14   ar
    14    14    15   ar
    15    15    16   ar
    16    16    17   ar
    17    17    18    1
    18    18    19   ar
    19    19    20   ar
    20    20    21   ar
    21    21    22   ar
    22    22    23   ar
    23    17    24   ar
    24     9     6   ar
    25    24    10   ar
    26    24    14   ar
    27    23    18   ar
    28     3    25    1
    29     3    26    1
    30     3    27    1
    31     5    28    1
    32     6    29    1
    33     7    30    1
    34     8    31    1
    35    11    32    1
    36    12    33    1
    37    13    34    1
    38    15    35    1
    39    19    36    1
    40    20    37    1
    41    21    38    1
    42    22    39    1
    43    23    40    1
