@<TRIPOS>MOLECULE
*****
 44 46 0 0 0
SMALL
GASTEIGER

@<TRIPOS>ATOM
      1 O           5.8717    2.6585   -1.0393 O.2     1  UNL1       -0.2924
      2 C           5.3357    1.5523   -1.0119 C.2     1  UNL1        0.1601
      3 C           6.1392    0.2950   -1.2200 C.3     1  UNL1       -0.0014
      4 C           3.8654    1.4400   -0.7691 C.ar    1  UNL1        0.0174
      5 C           3.2139    0.1995   -0.7284 C.ar    1  UNL1       -0.0467
      6 C           1.8425    0.1800   -0.4972 C.ar    1  UNL1       -0.0290
      7 C           1.1130    1.3739   -0.3066 C.ar    1  UNL1       -0.0135
      8 C           1.7505    2.6018   -0.3456 C.ar    1  UNL1       -0.0531
      9 C           3.1304    2.6300   -0.5777 C.ar    1  UNL1       -0.0507
     10 C          -0.2786    1.0460   -0.0895 C.ar    1  UNL1       -0.0135
     11 C          -1.3710    1.8561    0.1363 C.ar    1  UNL1       -0.0520
     12 C          -2.6297    1.2570    0.3151 C.ar    1  UNL1       -0.0401
     13 C          -2.8323   -0.1447    0.2824 C.ar    1  UNL1        0.0305
     14 N          -4.0950   -0.7210    0.4477 N.pl3   1  UNL1       -0.3218
     15 C          -5.2868    0.0881    0.7230 C.3     1  UNL1        0.0733
     16 C          -5.3730    0.4658    2.1435 C.1     1  UNL1       -0.0865
     17 C          -5.4398    0.7738    3.3028 C.1     1  UNL1       -0.1176
     18 C          -4.1904   -2.1335    0.8129 C.3     1  UNL1        0.0016
     19 C          -1.6914   -0.9366    0.0408 C.ar    1  UNL1       -0.0361
     20 C          -0.4403   -0.3481   -0.1382 C.ar    1  UNL1       -0.0279
     21 C           0.9039   -1.0283   -0.4063 C.3     1  UNL1        0.0163
     22 C           1.2992   -1.9436    0.7581 C.3     1  UNL1       -0.0517
     23 C           0.8759   -1.8014   -1.7297 C.3     1  UNL1       -0.0517
     24 H           7.1880    0.5621   -1.3836 H       1  UNL1        0.0309
     25 H           5.7846   -0.2394   -2.1051 H       1  UNL1        0.0309
     26 H           6.0867   -0.3399   -0.3319 H       1  UNL1        0.0309
     27 H           3.7441   -0.7352   -0.8709 H       1  UNL1        0.0628
     28 H           1.2034    3.5276   -0.2007 H       1  UNL1        0.0624
     29 H           3.6393    3.5928   -0.6097 H       1  UNL1        0.0625
     30 H          -1.2750    2.9357    0.1787 H       1  UNL1        0.0624
     31 H          -3.4581    1.9346    0.4989 H       1  UNL1        0.0636
     32 H          -6.1828   -0.4866    0.4546 H       1  UNL1        0.0600
     33 H          -5.3281    0.9713    0.0756 H       1  UNL1        0.0600
     34 H          -5.4876    1.0455    4.3318 H       1  UNL1        0.1228
     35 H          -3.8459   -2.7738   -0.0063 H       1  UNL1        0.0428
     36 H          -3.6084   -2.3484    1.7162 H       1  UNL1        0.0428
     37 H          -5.2260   -2.4291    1.0172 H       1  UNL1        0.0428
     38 H          -1.7610   -2.0165   -0.0222 H       1  UNL1        0.0639
     39 H           0.5909   -2.7722    0.8727 H       1  UNL1        0.0241
     40 H           1.3232   -1.3995    1.7103 H       1  UNL1        0.0241
     41 H           2.2937   -2.3780    0.6044 H       1  UNL1        0.0241
     42 H           1.8573   -2.2307   -1.9619 H       1  UNL1        0.0241
     43 H           0.5942   -1.1551   -2.5700 H       1  UNL1        0.0241
     44 H           0.1546   -2.6260   -1.6951 H       1  UNL1        0.0241
@<TRIPOS>BOND
     1     1     2    2
     2     2     3    1
     3     2     4    1
     4     4     5   ar
     5     5     6   ar
     6     6     7   ar
     7     7     8   ar
     8     8     9   ar
     9     7    10    1
    10    10    11   ar
    11    11    12   ar
    12    12    13   ar
    13    13    14    1
    14    14    15    1
    15    15    16    1
    16    16    17    3
    17    14    18    1
    18    13    19   ar
    19    19    20   ar
    20    20    21    1
    21    21    22    1
    22    21    23    1
    23     9     4   ar
    24    21     6    1
    25    20    10   ar
    26     3    24    1
    27     3    25    1
    28     3    26    1
    29     5    27    1
    30     8    28    1
    31     9    29    1
    32    11    30    1
    33    12    31    1
    34    15    32    1
    35    15    33    1
    36    17    34    1
    37    18    35    1
    38    18    36    1
    39    18    37    1
    40    19    38    1
    41    22    39    1
    42    22    40    1
    43    22    41    1
    44    23    42    1
    45    23    43    1
    46    23    44    1
