@<TRIPOS>MOLECULE
*****
 30 31 0 0 0
SMALL
GASTEIGER

@<TRIPOS>ATOM
      1 O          -0.4282   -2.1116    2.6189 O.2     1  UNL1       -0.2708
      2 C          -0.3593   -1.2632    1.7383 C.2     1  UNL1        0.2372
      3 C           0.8976   -0.5045    1.5319 C.2     1  UNL1        0.0007
      4 C           1.3030   -0.0568    0.3328 C.2     1  UNL1       -0.0497
      5 C           2.5584    0.6759    0.1153 C.ar    1  UNL1       -0.0248
      6 C           2.5914    1.6808   -0.8624 C.ar    1  UNL1       -0.0532
      7 C           3.7701    2.3881   -1.1183 C.ar    1  UNL1       -0.0428
      8 C           4.9265    2.0872   -0.4036 C.ar    1  UNL1        0.0410
      9 CL          6.3766    2.9574   -0.7176 Cl      1  UNL1       -0.0835
     10 C           4.9158    1.0814    0.5596 C.ar    1  UNL1       -0.0428
     11 C           3.7358    0.3753    0.8153 C.ar    1  UNL1       -0.0532
     12 N          -1.4070   -0.8883    0.9419 N.am    1  UNL1       -0.3072
     13 C          -2.7263   -1.4212    1.1832 C.3     1  UNL1        0.0433
     14 C          -3.6111   -1.0244    0.0458 C.ar    1  UNL1        0.0069
     15 C          -3.9116   -1.7464   -1.0929 C.ar    1  UNL1       -0.0500
     16 C          -4.7925   -1.0440   -1.9647 C.ar    1  UNL1       -0.0544
     17 C          -5.1324    0.1930   -1.4662 C.ar    1  UNL1       -0.0240
     18 S          -4.3946    0.5006    0.0452 S.2     1  UNL1       -0.1000
     19 H           1.4931   -0.3901    2.4315 H       1  UNL1        0.0669
     20 H           0.6996   -0.2221   -0.5566 H       1  UNL1        0.0625
     21 H           1.6971    1.9303   -1.4307 H       1  UNL1        0.0624
     22 H           3.7770    3.1698   -1.8739 H       1  UNL1        0.0632
     23 H           5.8193    0.8389    1.1130 H       1  UNL1        0.0632
     24 H           3.7559   -0.4182    1.5599 H       1  UNL1        0.0624
     25 H          -1.3452   -0.0141    0.4391 H       1  UNL1        0.1493
     26 H          -2.6618   -2.5123    1.2698 H       1  UNL1        0.0517
     27 H          -3.0894   -1.0321    2.1415 H       1  UNL1        0.0517
     28 H          -3.5163   -2.7362   -1.2895 H       1  UNL1        0.0626
     29 H          -5.1589   -1.4261   -2.9097 H       1  UNL1        0.0623
     30 H          -5.7830    0.9327   -1.9137 H       1  UNL1        0.0693
@<TRIPOS>BOND
     1     1     2    2
     2     2     3    1
     3     3     4    2
     4     4     5    1
     5     5     6   ar
     6     6     7   ar
     7     7     8   ar
     8     8     9    1
     9     8    10   ar
    10    10    11   ar
    11     2    12   am
    12    12    13    1
    13    13    14    1
    14    14    15   ar
    15    15    16   ar
    16    16    17   ar
    17    17    18   ar
    18    11     5   ar
    19    18    14   ar
    20     3    19    1
    21     4    20    1
    22     6    21    1
    23     7    22    1
    24    10    23    1
    25    11    24    1
    26    12    25    1
    27    13    26    1
    28    13    27    1
    29    15    28    1
    30    16    29    1
    31    17    30    1
