@<TRIPOS>MOLECULE
*****
 33 35 0 0 0
SMALL
GASTEIGER

@<TRIPOS>ATOM
      1 O           1.5515   -0.9875   -3.1907 O.2     1  UNL1       -0.2708
      2 C           1.2928   -0.6531   -2.0397 C.2     1  UNL1        0.2373
      3 C          -0.0791   -0.1995   -1.6931 C.2     1  UNL1        0.0007
      4 C          -0.6007   -0.1964   -0.4549 C.2     1  UNL1       -0.0496
      5 C          -1.9676    0.2430   -0.1153 C.ar    1  UNL1       -0.0212
      6 C          -2.5163   -0.1701    1.1210 C.ar    1  UNL1       -0.0509
      7 C          -3.7964    0.2315    1.5239 C.ar    1  UNL1       -0.0156
      8 C          -4.5063    1.0480    0.6747 C.ar    1  UNL1        0.1663
      9 C          -3.9828    1.4673   -0.5233 C.ar    1  UNL1        0.1668
     10 C          -2.7220    1.0911   -0.9433 C.ar    1  UNL1       -0.0090
     11 O          -4.8380    2.2729   -1.2084 O.3     1  UNL1       -0.4526
     12 C          -5.9606    2.3102   -0.3027 C.3     1  UNL1        0.2332
     13 O          -5.7532    1.5397    0.8987 O.3     1  UNL1       -0.4526
     14 N           2.2155   -0.6045   -1.0330 N.am    1  UNL1       -0.3047
     15 C           3.6124   -0.8440   -1.3040 C.3     1  UNL1        0.0700
     16 C           4.3199   -1.0419   -0.0157 C.ar    1  UNL1        0.1218
     17 C           5.1083   -2.0575    0.4877 C.ar    1  UNL1       -0.0192
     18 C           5.4986   -1.6553    1.7872 C.ar    1  UNL1       -0.0236
     19 C           4.9269   -0.4217    1.9957 C.ar    1  UNL1        0.0921
     20 O           4.2048   -0.0422    0.9103 O.2     1  UNL1       -0.4662
     21 H          -0.6586    0.0852   -2.5659 H       1  UNL1        0.0669
     22 H          -0.0155   -0.5603    0.3862 H       1  UNL1        0.0625
     23 H          -1.9456   -0.8157    1.7860 H       1  UNL1        0.0625
     24 H          -4.2165   -0.0911    2.4702 H       1  UNL1        0.0655
     25 H          -2.3482    1.4653   -1.8896 H       1  UNL1        0.0661
     26 H          -6.1485    3.3533   -0.0246 H       1  UNL1        0.1166
     27 H          -6.8449    1.9197   -0.8220 H       1  UNL1        0.1166
     28 H           2.0028   -0.1135   -0.1753 H       1  UNL1        0.1494
     29 H           3.7146   -1.7194   -1.9533 H       1  UNL1        0.0543
     30 H           4.0115    0.0281   -1.8308 H       1  UNL1        0.0543
     31 H           5.3733   -2.9710   -0.0273 H       1  UNL1        0.0652
     32 H           6.1270   -2.1931    2.4840 H       1  UNL1        0.0649
     33 H           4.9408    0.2824    2.8167 H       1  UNL1        0.1029
@<TRIPOS>BOND
     1     1     2    2
     2     2     3    1
     3     3     4    2
     4     4     5    1
     5     5     6   ar
     6     6     7   ar
     7     7     8   ar
     8     8     9   ar
     9     9    10   ar
    10     9    11    1
    11    11    12    1
    12    12    13    1
    13     2    14   am
    14    14    15    1
    15    15    16    1
    16    16    17   ar
    17    17    18   ar
    18    18    19   ar
    19    19    20   ar
    20    10     5   ar
    21    20    16   ar
    22    13     8    1
    23     3    21    1
    24     4    22    1
    25     6    23    1
    26     7    24    1
    27    10    25    1
    28    12    26    1
    29    12    27    1
    30    14    28    1
    31    15    29    1
    32    15    30    1
    33    17    31    1
    34    18    32    1
    35    19    33    1
