@<TRIPOS>MOLECULE
*****
 37 38 0 0 0
SMALL
GASTEIGER

@<TRIPOS>ATOM
      1 O          -0.5218    0.3527   -3.2671 O.2     1  UNL1       -0.2708
      2 C          -0.7133    0.4627   -2.0623 C.2     1  UNL1        0.2369
      3 C          -1.9175   -0.1418   -1.4424 C.2     1  UNL1        0.0007
      4 C          -2.5126    0.3387   -0.3392 C.2     1  UNL1       -0.0497
      5 C          -3.7194   -0.2511    0.2575 C.ar    1  UNL1       -0.0249
      6 C          -4.7672   -0.7632   -0.5192 C.ar    1  UNL1       -0.0546
      7 C          -5.9101   -1.2905    0.0880 C.ar    1  UNL1       -0.0612
      8 C          -6.0217   -1.3015    1.4766 C.ar    1  UNL1       -0.0617
      9 C          -4.9942   -0.7801    2.2592 C.ar    1  UNL1       -0.0612
     10 C          -3.8515   -0.2522    1.6526 C.ar    1  UNL1       -0.0546
     11 N           0.1598    1.0611   -1.1918 N.am    1  UNL1       -0.3110
     12 C           1.4693    1.5000   -1.6380 C.3     1  UNL1        0.0212
     13 C           2.1429    2.4485   -0.6459 C.3     1  UNL1        0.0139
     14 S           2.3220    1.7208    1.0299 S.3     1  UNL1       -0.1237
     15 C           3.5458    0.4665    0.7051 C.ar    1  UNL1        0.0080
     16 C           3.2167   -0.8789    0.9020 C.ar    1  UNL1       -0.0469
     17 C           4.1618   -1.8793    0.6584 C.ar    1  UNL1       -0.0423
     18 C           5.4406   -1.5331    0.2275 C.ar    1  UNL1        0.0410
     19 CL          6.6052   -2.7630   -0.0708 Cl      1  UNL1       -0.0835
     20 C           5.7831   -0.1953    0.0421 C.ar    1  UNL1       -0.0423
     21 C           4.8367    0.8043    0.2850 C.ar    1  UNL1       -0.0469
     22 H          -2.3140   -0.9875   -1.9943 H       1  UNL1        0.0669
     23 H          -2.1198    1.2115    0.1757 H       1  UNL1        0.0625
     24 H          -4.7150   -0.7476   -1.6053 H       1  UNL1        0.0623
     25 H          -6.7155   -1.6868   -0.5252 H       1  UNL1        0.0618
     26 H          -6.9117   -1.7106    1.9479 H       1  UNL1        0.0618
     27 H          -5.0820   -0.7819    3.3426 H       1  UNL1        0.0618
     28 H          -3.0624    0.1512    2.2831 H       1  UNL1        0.0623
     29 H           0.0590    0.8608   -0.2044 H       1  UNL1        0.1490
     30 H           2.0777    0.6061   -1.8158 H       1  UNL1        0.0470
     31 H           1.3551    2.0056   -2.6039 H       1  UNL1        0.0470
     32 H           3.1196    2.7668   -1.0232 H       1  UNL1        0.0395
     33 H           1.5298    3.3492   -0.5318 H       1  UNL1        0.0395
     34 H           2.2235   -1.1617    1.2434 H       1  UNL1        0.0629
     35 H           3.8945   -2.9219    0.8093 H       1  UNL1        0.0632
     36 H           6.7835    0.0766   -0.2844 H       1  UNL1        0.0632
     37 H           5.1233    1.8450    0.1537 H       1  UNL1        0.0629
@<TRIPOS>BOND
     1     1     2    2
     2     2     3    1
     3     3     4    2
     4     4     5    1
     5     5     6   ar
     6     6     7   ar
     7     7     8   ar
     8     8     9   ar
     9     9    10   ar
    10     2    11   am
    11    11    12    1
    12    12    13    1
    13    13    14    1
    14    14    15    1
    15    15    16   ar
    16    16    17   ar
    17    17    18   ar
    18    18    19    1
    19    18    20   ar
    20    20    21   ar
    21    10     5   ar
    22    21    15   ar
    23     3    22    1
    24     4    23    1
    25     6    24    1
    26     7    25    1
    27     8    26    1
    28     9    27    1
    29    10    28    1
    30    11    29    1
    31    12    30    1
    32    12    31    1
    33    13    32    1
    34    13    33    1
    35    16    34    1
    36    17    35    1
    37    20    36    1
    38    21    37    1
