@<TRIPOS>MOLECULE
*****
 38 40 0 0 0
SMALL
GASTEIGER

@<TRIPOS>ATOM
      1 O           1.8326    1.6435    0.0439 O.2     1  UNL1       -0.2705
      2 C           2.1805    0.5643   -0.4167 C.2     1  UNL1        0.2412
      3 C           3.4783    0.4214   -1.1317 C.2     1  UNL1        0.0039
      4 C           4.2779    1.4883   -1.2746 C.2     1  UNL1       -0.0144
      5 C           5.5219    1.3792   -1.9527 C.ar    1  UNL1        0.1278
      6 C           6.4682    2.3698   -2.1903 C.ar    1  UNL1       -0.0165
      7 C           7.5428    1.7871   -2.9026 C.ar    1  UNL1       -0.0233
      8 C           7.2081    0.4684   -3.0696 C.ar    1  UNL1        0.0925
      9 O           6.0029    0.2112   -2.5068 O.2     1  UNL1       -0.4635
     10 N           1.4899   -0.6295   -0.3665 N.am    1  UNL1       -0.2820
     11 C           0.2334   -0.8673    0.2307 C.ar    1  UNL1        0.0339
     12 C          -0.5153    0.1078    0.8937 C.ar    1  UNL1       -0.0370
     13 C          -1.7555   -0.2103    1.4600 C.ar    1  UNL1       -0.0176
     14 C          -2.2619   -1.5053    1.3509 C.ar    1  UNL1        0.1286
     15 O          -3.4553   -1.8944    1.9138 O.3     1  UNL1       -0.4560
     16 C          -4.5408   -1.0673    1.7351 C.ar    1  UNL1        0.1284
     17 C          -5.3273   -0.8027    2.8566 C.ar    1  UNL1       -0.0193
     18 C          -6.4616    0.0006    2.7365 C.ar    1  UNL1       -0.0583
     19 C          -6.8160    0.5249    1.4929 C.ar    1  UNL1       -0.0615
     20 C          -6.0417    0.2408    0.3672 C.ar    1  UNL1       -0.0583
     21 C          -4.9068   -0.5628    0.4845 C.ar    1  UNL1       -0.0193
     22 C          -1.5139   -2.4910    0.7124 C.ar    1  UNL1       -0.0176
     23 C          -0.2754   -2.1711    0.1486 C.ar    1  UNL1       -0.0370
     24 H           3.7539   -0.5487   -1.5253 H       1  UNL1        0.0671
     25 H           3.9910    2.4577   -0.8747 H       1  UNL1        0.0656
     26 H           6.3831    3.4021   -1.8781 H       1  UNL1        0.0655
     27 H           8.4458    2.2690   -3.2493 H       1  UNL1        0.0649
     28 H           7.6936   -0.3742   -3.5415 H       1  UNL1        0.1029
     29 H           1.9202   -1.4327   -0.8048 H       1  UNL1        0.1551
     30 H          -0.1617    1.1289    0.9966 H       1  UNL1        0.0637
     31 H          -2.3108    0.5607    1.9874 H       1  UNL1        0.0655
     32 H          -5.0532   -1.2172    3.8227 H       1  UNL1        0.0654
     33 H          -7.0703    0.2150    3.6110 H       1  UNL1        0.0619
     34 H          -7.7004    1.1501    1.3995 H       1  UNL1        0.0618
     35 H          -6.3247    0.6413   -0.6028 H       1  UNL1        0.0619
     36 H          -4.3187   -0.7931   -0.3992 H       1  UNL1        0.0654
     37 H          -1.8957   -3.5063    0.6492 H       1  UNL1        0.0655
     38 H           0.2832   -2.9581   -0.3510 H       1  UNL1        0.0637
@<TRIPOS>BOND
     1     1     2    2
     2     2     3    1
     3     3     4    2
     4     4     5    1
     5     5     6   ar
     6     6     7   ar
     7     7     8   ar
     8     8     9   ar
     9     2    10   am
    10    10    11    1
    11    11    12   ar
    12    12    13   ar
    13    13    14   ar
    14    14    15    1
    15    15    16    1
    16    16    17   ar
    17    17    18   ar
    18    18    19   ar
    19    19    20   ar
    20    20    21   ar
    21    14    22   ar
    22    22    23   ar
    23     9     5   ar
    24    23    11   ar
    25    21    16   ar
    26     3    24    1
    27     4    25    1
    28     6    26    1
    29     7    27    1
    30     8    28    1
    31    10    29    1
    32    12    30    1
    33    13    31    1
    34    17    32    1
    35    18    33    1
    36    19    34    1
    37    20    35    1
    38    21    36    1
    39    22    37    1
    40    23    38    1
