@<TRIPOS>MOLECULE
*****
 38 40 0 0 0
SMALL
GASTEIGER

@<TRIPOS>ATOM
      1 O          -3.9614   -1.0031   -1.0118 O.2     1  UNL1       -0.2840
      2 C          -4.4690   -0.1363   -0.2972 C.2     1  UNL1        0.2220
      3 C          -3.5930    0.6633    0.6184 C.2     1  UNL1        0.0026
      4 C          -2.2683    0.4719    0.7084 C.2     1  UNL1       -0.0025
      5 N          -1.5074   -0.4385    0.0255 N.pl3   1  UNL1       -0.3204
      6 C          -0.1236   -0.6691    0.0601 C.ar    1  UNL1        0.0311
      7 C           0.7693    0.0657    0.8502 C.ar    1  UNL1       -0.0371
      8 C           2.1412   -0.2163    0.8458 C.ar    1  UNL1       -0.0176
      9 C           2.6396   -1.2360    0.0364 C.ar    1  UNL1        0.1286
     10 O           3.9702   -1.5851    0.0055 O.3     1  UNL1       -0.4546
     11 C           4.8825   -0.5582   -0.1047 C.ar    1  UNL1        0.1467
     12 C           4.8058    0.3587   -1.1604 C.ar    1  UNL1       -0.0179
     13 C           5.7631    1.3675   -1.2794 C.ar    1  UNL1       -0.0582
     14 C           6.8054    1.4543   -0.3565 C.ar    1  UNL1       -0.0602
     15 C           6.8964    0.5283    0.6848 C.ar    1  UNL1       -0.0398
     16 C           5.9401   -0.4825    0.8073 C.ar    1  UNL1        0.0831
     17 CL          6.0905   -1.6072    2.1077 Cl      1  UNL1       -0.0797
     18 C           1.7673   -1.9974   -0.7347 C.ar    1  UNL1       -0.0176
     19 C           0.3994   -1.7090   -0.7261 C.ar    1  UNL1       -0.0371
     20 C          -5.8914    0.1604   -0.2923 C.ar    1  UNL1        0.1741
     21 C          -6.6836    1.0567    0.4075 C.ar    1  UNL1       -0.0127
     22 C          -8.0170    0.8661   -0.0344 C.ar    1  UNL1       -0.0232
     23 C          -7.9667   -0.1317   -0.9756 C.ar    1  UNL1        0.0927
     24 O          -6.6926   -0.5638   -1.1390 O.2     1  UNL1       -0.4597
     25 H          -4.0585    1.4252    1.2286 H       1  UNL1        0.0669
     26 H          -1.7117    1.0966    1.4001 H       1  UNL1        0.0782
     27 H          -2.0404   -1.0250   -0.6252 H       1  UNL1        0.1516
     28 H           0.4214    0.8697    1.4895 H       1  UNL1        0.0637
     29 H           2.8042    0.3593    1.4852 H       1  UNL1        0.0655
     30 H           4.0066    0.2876   -1.8939 H       1  UNL1        0.0655
     31 H           5.6987    2.0820   -2.0968 H       1  UNL1        0.0619
     32 H           7.5521    2.2392   -0.4519 H       1  UNL1        0.0618
     33 H           7.7163    0.5975    1.3951 H       1  UNL1        0.0633
     34 H           2.1464   -2.8121   -1.3450 H       1  UNL1        0.0655
     35 H          -0.2643   -2.3129   -1.3413 H       1  UNL1        0.0637
     36 H          -6.3544    1.7682    1.1513 H       1  UNL1        0.0656
     37 H          -8.9043    1.3901    0.2926 H       1  UNL1        0.0649
     38 H          -8.7086   -0.6240   -1.5893 H       1  UNL1        0.1029
@<TRIPOS>BOND
     1     1     2    2
     2     2     3    1
     3     3     4    2
     4     4     5    1
     5     5     6    1
     6     6     7   ar
     7     7     8   ar
     8     8     9   ar
     9     9    10    1
    10    10    11    1
    11    11    12   ar
    12    12    13   ar
    13    13    14   ar
    14    14    15   ar
    15    15    16   ar
    16    16    17    1
    17     9    18   ar
    18    18    19   ar
    19     2    20    1
    20    20    21   ar
    21    21    22   ar
    22    22    23   ar
    23    23    24   ar
    24    19     6   ar
    25    24    20   ar
    26    16    11   ar
    27     3    25    1
    28     4    26    1
    29     5    27    1
    30     7    28    1
    31     8    29    1
    32    12    30    1
    33    13    31    1
    34    14    32    1
    35    15    33    1
    36    18    34    1
    37    19    35    1
    38    21    36    1
    39    22    37    1
    40    23    38    1
