@<TRIPOS>MOLECULE
*****
 39 41 0 0 0
SMALL
GASTEIGER

@<TRIPOS>ATOM
      1 O          -0.4229    2.4018    1.5448 O.2     1  UNL1       -0.2449
      2 C          -1.0026    1.8366    0.6337 C.2     1  UNL1        0.3398
      3 C          -1.0294    0.3727    0.4296 C.ar    1  UNL1        0.0701
      4 C           0.1763   -0.3690    0.2806 C.ar    1  UNL1       -0.0019
      5 C           1.4787    0.2047    0.3116 C.ar    1  UNL1       -0.0322
      6 C           2.6666   -0.5319    0.1380 C.ar    1  UNL1        0.0298
      7 N           3.9357    0.0575    0.1937 N.pl3   1  UNL1       -0.3360
      8 C           5.0146   -0.5646   -0.5734 C.3     1  UNL1        0.0004
      9 C           4.0540    1.5002    0.3943 C.3     1  UNL1        0.0004
     10 C           2.5084   -1.9105   -0.0526 C.ar    1  UNL1       -0.0401
     11 C           1.2482   -2.5188   -0.0888 C.ar    1  UNL1       -0.0523
     12 C           0.0801   -1.7697    0.0726 C.ar    1  UNL1       -0.0167
     13 C          -1.1714   -2.4085    0.0271 C.ar    1  UNL1       -0.0505
     14 C          -2.3230   -1.6620    0.1998 C.ar    1  UNL1       -0.0428
     15 C          -2.2599   -0.2833    0.4001 C.ar    1  UNL1       -0.0296
     16 C          -3.6408    0.2883    0.5260 C.3     1  UNL1       -0.0263
     17 C          -4.4635   -0.9694    0.8382 C.3     1  UNL1       -0.0450
     18 C          -3.7403   -2.1407    0.1627 C.3     1  UNL1       -0.0271
     19 O          -1.6956    2.4253   -0.3739 O.3     1  UNL1       -0.4644
     20 C          -1.7190    3.8503   -0.2993 C.3     1  UNL1        0.0820
     21 H           1.5503    1.2764    0.4741 H       1  UNL1        0.0642
     22 H           4.7307   -0.6892   -1.6244 H       1  UNL1        0.0428
     23 H           5.9238    0.0469   -0.5504 H       1  UNL1        0.0428
     24 H           5.2929   -1.5357   -0.1512 H       1  UNL1        0.0428
     25 H           3.6654    2.0513   -0.4691 H       1  UNL1        0.0428
     26 H           5.1018    1.7906    0.5320 H       1  UNL1        0.0428
     27 H           3.5323    1.8204    1.3029 H       1  UNL1        0.0428
     28 H           3.3724   -2.5597   -0.1576 H       1  UNL1        0.0636
     29 H           1.1983   -3.5953   -0.2383 H       1  UNL1        0.0624
     30 H          -1.2439   -3.4805   -0.1382 H       1  UNL1        0.0626
     31 H          -3.9534    0.7345   -0.4237 H       1  UNL1        0.0314
     32 H          -3.7236    1.0218    1.3329 H       1  UNL1        0.0314
     33 H          -5.5054   -0.8785    0.5157 H       1  UNL1        0.0272
     34 H          -4.4744   -1.1314    1.9252 H       1  UNL1        0.0272
     35 H          -4.0689   -2.2659   -0.8741 H       1  UNL1        0.0313
     36 H          -3.8837   -3.0720    0.7177 H       1  UNL1        0.0313
     37 H          -2.2058    4.1780    0.6246 H       1  UNL1        0.0661
     38 H          -0.7042    4.2547   -0.3680 H       1  UNL1        0.0661
     39 H          -2.2989    4.2247   -1.1474 H       1  UNL1        0.0661
@<TRIPOS>BOND
     1     1     2    2
     2     2     3    1
     3     3     4   ar
     4     4     5   ar
     5     5     6   ar
     6     6     7    1
     7     7     8    1
     8     7     9    1
     9     6    10   ar
    10    10    11   ar
    11    11    12   ar
    12    12    13   ar
    13    13    14   ar
    14    14    15   ar
    15    15    16    1
    16    16    17    1
    17    17    18    1
    18     2    19    1
    19    19    20    1
    20    15     3   ar
    21    12     4   ar
    22    18    14    1
    23     5    21    1
    24     8    22    1
    25     8    23    1
    26     8    24    1
    27     9    25    1
    28     9    26    1
    29     9    27    1
    30    10    28    1
    31    11    29    1
    32    13    30    1
    33    16    31    1
    34    16    32    1
    35    17    33    1
    36    17    34    1
    37    18    35    1
    38    18    36    1
    39    20    37    1
    40    20    38    1
    41    20    39    1
