@<TRIPOS>MOLECULE
*****
 36 38 0 0 0
SMALL
GASTEIGER

@<TRIPOS>ATOM
      1 O           4.9682    0.4818    0.2669 O.2     1  UNL1       -0.2449
      2 C           3.8498    0.9825    0.3021 C.2     1  UNL1        0.3410
      3 C           2.6100    0.2360    0.1118 C.ar    1  UNL1        0.0847
      4 C           2.4929   -1.1235   -0.1323 C.ar    1  UNL1        0.0606
      5 N           1.1376   -1.4531   -0.2504 N.ar    1  UNL1       -0.3156
      6 C           0.3865   -0.2884   -0.0979 C.ar    1  UNL1        0.0475
      7 C          -1.0344   -0.3138   -0.1986 C.2     1  UNL1       -0.0373
      8 C          -1.7879    0.6870    0.2857 C.2     1  UNL1       -0.0526
      9 C          -3.2542    0.7106    0.1900 C.ar    1  UNL1       -0.0250
     10 C          -3.8931    1.9090   -0.1523 C.ar    1  UNL1       -0.0546
     11 C          -5.2865    1.9744   -0.2277 C.ar    1  UNL1       -0.0612
     12 C          -6.0541    0.8451    0.0498 C.ar    1  UNL1       -0.0617
     13 C          -5.4299   -0.3483    0.4073 C.ar    1  UNL1       -0.0612
     14 C          -4.0363   -0.4146    0.4819 C.ar    1  UNL1       -0.0546
     15 C           1.2794    0.7447    0.1350 C.ar    1  UNL1       -0.0219
     16 C           0.7136   -2.7735   -0.4719 C.ar    1  UNL1        0.0104
     17 C           1.6145   -3.7615   -0.5930 C.ar    1  UNL1       -0.0451
     18 C           3.0233   -3.4420   -0.4920 C.ar    1  UNL1       -0.0584
     19 C           3.4432   -2.1836   -0.2709 C.ar    1  UNL1       -0.0370
     20 O           3.6185    2.3114    0.5255 O.3     1  UNL1       -0.4644
     21 C           4.8033    3.0831    0.7177 C.3     1  UNL1        0.0820
     22 H          -1.5207   -1.1464   -0.6984 H       1  UNL1        0.0638
     23 H          -1.3436    1.5522    0.7702 H       1  UNL1        0.0624
     24 H          -3.3099    2.8003   -0.3725 H       1  UNL1        0.0623
     25 H          -5.7715    2.9077   -0.5019 H       1  UNL1        0.0618
     26 H          -7.1383    0.8966   -0.0072 H       1  UNL1        0.0618
     27 H          -6.0276   -1.2272    0.6345 H       1  UNL1        0.0618
     28 H          -3.5704   -1.3496    0.7827 H       1  UNL1        0.0623
     29 H           1.0083    1.7815    0.2922 H       1  UNL1        0.0647
     30 H          -0.3474   -2.9683   -0.5341 H       1  UNL1        0.0813
     31 H           1.3187   -4.7909   -0.7613 H       1  UNL1        0.0632
     32 H           3.7384   -4.2520   -0.5977 H       1  UNL1        0.0619
     33 H           4.5054   -1.9674   -0.1960 H       1  UNL1        0.0638
     34 H           4.5070    4.1221    0.8867 H       1  UNL1        0.0661
     35 H           5.4356    3.0453   -0.1750 H       1  UNL1        0.0661
     36 H           5.3515    2.7329    1.5979 H       1  UNL1        0.0661
@<TRIPOS>BOND
     1     1     2    2
     2     2     3    1
     3     3     4   ar
     4     4     5   ar
     5     5     6   ar
     6     6     7    1
     7     7     8    2
     8     8     9    1
     9     9    10   ar
    10    10    11   ar
    11    11    12   ar
    12    12    13   ar
    13    13    14   ar
    14     6    15   ar
    15     5    16   ar
    16    16    17   ar
    17    17    18   ar
    18    18    19   ar
    19     2    20    1
    20    20    21    1
    21    15     3   ar
    22    19     4   ar
    23    14     9   ar
    24     7    22    1
    25     8    23    1
    26    10    24    1
    27    11    25    1
    28    12    26    1
    29    13    27    1
    30    14    28    1
    31    15    29    1
    32    16    30    1
    33    17    31    1
    34    18    32    1
    35    19    33    1
    36    21    34    1
    37    21    35    1
    38    21    36    1
