@<TRIPOS>MOLECULE
*****
 36 37 0 0 0
SMALL
GASTEIGER

@<TRIPOS>ATOM
      1 O           2.2543   -2.5212    1.0731 O.2     1  UNL1       -0.2866
      2 C           1.5960   -1.4924    0.9565 C.2     1  UNL1        0.1992
      3 C           2.2194   -0.2176    0.5775 C.ar    1  UNL1        0.0659
      4 C           3.5842   -0.1823    0.2661 C.ar    1  UNL1       -0.0333
      5 C           4.1833    1.0342   -0.0487 C.ar    1  UNL1        0.0198
      6 BR          6.0242    1.0905   -0.4720 Br      1  UNL1       -0.0502
      7 C           3.4387    2.2113   -0.0475 C.ar    1  UNL1       -0.0302
      8 C           2.0783    2.1648    0.2675 C.ar    1  UNL1        0.0613
      9 BR          1.1011    3.7931    0.2522 Br      1  UNL1       -0.0465
     10 C           1.4553    0.9471    0.5708 C.ar    1  UNL1        0.1462
     11 O           0.1251    0.9633    0.8719 O.3     1  UNL1       -0.4811
     12 C          -0.6242   -0.2575    0.7267 C.3     1  UNL1        0.1467
     13 C          -1.2611   -0.3692   -0.6971 C.3     1  UNL1        0.1031
     14 C          -2.2688   -1.5339   -0.7793 C.3     1  UNL1       -0.0459
     15 C          -0.2258   -0.5743   -1.8205 C.3     1  UNL1       -0.0459
     16 C          -2.0215    0.9313   -0.9733 C.2     1  UNL1        0.3164
     17 O          -3.0106    1.1258   -0.0542 O.3     1  UNL1       -0.4675
     18 C          -3.7473    2.3364   -0.2385 C.3     1  UNL1        0.0817
     19 O          -1.7856    1.6924   -1.9026 O.2     1  UNL1       -0.2501
     20 C           0.1385   -1.4630    1.2114 C.2     1  UNL1        0.0749
     21 C          -0.4253   -2.4755    1.8918 C.2     1  UNL1        0.0912
     22 O           0.2134   -3.5988    2.3481 O.2     1  UNL1       -0.5138
     23 H           4.1712   -1.0989    0.2788 H       1  UNL1        0.0637
     24 H           3.9132    3.1592   -0.2900 H       1  UNL1        0.0641
     25 H          -1.4518   -0.1228    1.4379 H       1  UNL1        0.0797
     26 H          -2.9871   -1.5052    0.0479 H       1  UNL1        0.0241
     27 H          -1.7665   -2.5067   -0.7546 H       1  UNL1        0.0241
     28 H          -2.8489   -1.4866   -1.7087 H       1  UNL1        0.0241
     29 H          -0.7218   -0.6632   -2.7952 H       1  UNL1        0.0241
     30 H           0.4666    0.2688   -1.9046 H       1  UNL1        0.0241
     31 H           0.3580   -1.4885   -1.6737 H       1  UNL1        0.0241
     32 H          -4.2648    2.3260   -1.2028 H       1  UNL1        0.0661
     33 H          -3.0846    3.2041   -0.1611 H       1  UNL1        0.0661
     34 H          -4.4959    2.4009    0.5559 H       1  UNL1        0.0661
     35 H          -1.4768   -2.5185    2.1531 H       1  UNL1        0.1026
     36 H           1.1475   -3.5731    2.0373 H       1  UNL1        0.2912
@<TRIPOS>BOND
     1     1     2    2
     2     2     3    1
     3     3     4   ar
     4     4     5   ar
     5     5     6    1
     6     5     7   ar
     7     7     8   ar
     8     8     9    1
     9     8    10   ar
    10    10    11    1
    11    11    12    1
    12    12    13    1
    13    13    14    1
    14    13    15    1
    15    13    16    1
    16    16    17    1
    17    17    18    1
    18    16    19    2
    19     2    20    1
    20    20    21    2
    21    21    22    1
    22    10     3   ar
    23    20    12    1
    24     4    23    1
    25     7    24    1
    26    12    25    1
    27    14    26    1
    28    14    27    1
    29    14    28    1
    30    15    29    1
    31    15    30    1
    32    15    31    1
    33    18    32    1
    34    18    33    1
    35    18    34    1
    36    21    35    1
    37    22    36    1
