@<TRIPOS>MOLECULE
*****
 36 41 0 0 0
SMALL
GASTEIGER

@<TRIPOS>ATOM
      1 SI         -3.5925    1.6608   -0.7439 Si      1  UNL1        0.0000
      2 C          -5.4455    1.5686   -1.1941 C.2     1  UNL1        0.0000
      3 C          -5.9891    0.3980   -0.7946 C.2     1  UNL1        0.0000
      4 C          -5.0792   -0.4969   -0.1469 C.ar    1  UNL1        0.0000
      5 C          -5.2860   -1.7361    0.3945 C.ar    1  UNL1        0.0000
      6 S          -3.8221   -2.3557    1.0696 S.2     1  UNL1        0.0000
      7 C          -2.9028   -0.9635    0.6084 C.ar    1  UNL1        0.0000
      8 C          -3.7288   -0.0711   -0.0107 C.ar    1  UNL1        0.0000
      9 C          -1.5013   -0.8767    0.8817 C.ar    1  UNL1        0.0000
     10 C          -0.7965   -1.1773    2.0308 C.ar    1  UNL1        0.0000
     11 C           0.5704   -0.9151    1.7800 C.ar    1  UNL1        0.0000
     12 N           1.6223   -1.0519    2.6206 N.ar    1  UNL1        0.0000
     13 C           2.8232   -0.7242    2.0900 C.ar    1  UNL1        0.0000
     14 C           3.0520   -0.2700    0.7820 C.ar    1  UNL1        0.0000
     15 C           4.3475    0.0620    0.2737 C.ar    1  UNL1        0.0000
     16 S           5.8751   -0.0051    1.0907 S.2     1  UNL1        0.0000
     17 C           6.7292    0.5462   -0.2731 C.ar    1  UNL1        0.0000
     18 C           5.8961    0.7834   -1.3385 C.ar    1  UNL1        0.0000
     19 C           4.5169    0.5105   -1.0442 C.ar    1  UNL1        0.0000
     20 C           3.3746    0.6314   -1.8741 C.ar    1  UNL1        0.0000
     21 C           2.1010    0.3132   -1.3978 C.ar    1  UNL1        0.0000
     22 C           1.9452   -0.1329   -0.0810 C.ar    1  UNL1        0.0000
     23 C           0.6873   -0.4706    0.4651 C.ar    1  UNL1        0.0000
     24 N          -0.5851   -0.4683   -0.0591 N.ar    1  UNL1        0.0000
     25 H          -2.7275    1.6967   -1.9520 H       1  UNL1        0.0000
     26 H          -3.3338    2.7319    0.2483 H       1  UNL1        0.0000
     27 H          -5.9384    2.3860   -1.6953 H       1  UNL1        0.0000
     28 H          -7.0325    0.1458   -0.9462 H       1  UNL1        0.0000
     29 H          -6.1972   -2.3150    0.4477 H       1  UNL1        0.0000
     30 H          -1.2128   -1.5367    2.9617 H       1  UNL1        0.0000
     31 H           3.6459   -0.8459    2.7909 H       1  UNL1        0.0000
     32 H           7.8026    0.6710   -0.2318 H       1  UNL1        0.0000
     33 H           6.2531    1.1393   -2.2973 H       1  UNL1        0.0000
     34 H           3.4907    0.9771   -2.8991 H       1  UNL1        0.0000
     35 H           1.2515    0.4184   -2.0656 H       1  UNL1        0.0000
     36 H          -0.8135   -0.2273   -1.0123 H       1  UNL1        0.0000
@<TRIPOS>BOND
     1     1     2    1
     2     2     3    2
     3     3     4    1
     4     4     5   ar
     5     5     6   ar
     6     6     7   ar
     7     7     8   ar
     8     7     9    1
     9     9    10   ar
    10    10    11   ar
    11    11    12   ar
    12    12    13   ar
    13    13    14   ar
    14    14    15   ar
    15    15    16   ar
    16    16    17   ar
    17    17    18   ar
    18    18    19   ar
    19    19    20   ar
    20    20    21   ar
    21    21    22   ar
    22    22    23   ar
    23    23    24   ar
    24     8     1    1
    25    24     9   ar
    26     8     4   ar
    27    23    11   ar
    28    22    14   ar
    29    19    15   ar
    30     1    25    1
    31     1    26    1
    32     2    27    1
    33     3    28    1
    34     5    29    1
    35    10    30    1
    36    13    31    1
    37    17    32    1
    38    18    33    1
    39    20    34    1
    40    21    35    1
    41    24    36    1
