@<TRIPOS>MOLECULE
*****
 36 37 0 0 0
SMALL
GASTEIGER

@<TRIPOS>ATOM
      1 O           2.3560   -2.2997    0.7326 O.2     1  UNL1       -0.2866
      2 C           1.8125   -1.4030    0.1034 C.2     1  UNL1        0.1992
      3 C           2.3461   -0.0337    0.1182 C.ar    1  UNL1        0.0665
      4 C           3.6132    0.2141    0.6545 C.ar    1  UNL1       -0.0121
      5 C           4.1133    1.5091    0.6342 C.ar    1  UNL1        0.1243
      6 F           5.3275    1.7564    1.1417 F       1  UNL1       -0.2055
      7 C           3.3747    2.5549    0.0903 C.ar    1  UNL1       -0.0230
      8 C           2.1079    2.3022   -0.4382 C.ar    1  UNL1       -0.0165
      9 C           1.5870    1.0063   -0.4163 C.ar    1  UNL1        0.1324
     10 O           0.3325    0.8606   -0.9314 O.3     1  UNL1       -0.4822
     11 C          -0.3628   -0.3787   -0.6813 C.3     1  UNL1        0.1467
     12 C          -1.3368   -0.2491    0.5331 C.3     1  UNL1        0.1031
     13 C          -0.6346    0.0768    1.8650 C.3     1  UNL1       -0.0459
     14 C          -2.1567   -1.5388    0.7451 C.3     1  UNL1       -0.0459
     15 C          -2.3073    0.8924    0.2122 C.2     1  UNL1        0.3164
     16 O          -3.1164    0.5673   -0.8385 O.3     1  UNL1       -0.4675
     17 C          -4.0459    1.5919   -1.1977 C.3     1  UNL1        0.0817
     18 O          -2.3576    1.9590    0.8109 O.2     1  UNL1       -0.2501
     19 C           0.5621   -1.5701   -0.6735 C.2     1  UNL1        0.0749
     20 C           0.3201   -2.6983   -1.3590 C.2     1  UNL1        0.0912
     21 O           1.1763   -3.7596   -1.4340 O.2     1  UNL1       -0.5138
     22 H           4.2109   -0.5888    1.0764 H       1  UNL1        0.0654
     23 H           3.7877    3.5590    0.0850 H       1  UNL1        0.0647
     24 H           1.5220    3.1179   -0.8553 H       1  UNL1        0.0655
     25 H          -0.9872   -0.4916   -1.5792 H       1  UNL1        0.0797
     26 H          -0.0821    1.0205    1.8209 H       1  UNL1        0.0241
     27 H           0.0578   -0.7156    2.1650 H       1  UNL1        0.0241
     28 H          -1.3677    0.1852    2.6742 H       1  UNL1        0.0241
     29 H          -1.5345   -2.3539    1.1305 H       1  UNL1        0.0241
     30 H          -2.9682   -1.3745    1.4641 H       1  UNL1        0.0241
     31 H          -2.6182   -1.8835   -0.1872 H       1  UNL1        0.0241
     32 H          -3.5161    2.4981   -1.5075 H       1  UNL1        0.0661
     33 H          -4.7246    1.8023   -0.3653 H       1  UNL1        0.0661
     34 H          -4.6371    1.2303   -2.0435 H       1  UNL1        0.0661
     35 H          -0.5773   -2.8519   -1.9472 H       1  UNL1        0.1026
     36 H           0.7236   -4.5133   -1.8504 H       1  UNL1        0.2912
@<TRIPOS>BOND
     1     1     2    2
     2     2     3    1
     3     3     4   ar
     4     4     5   ar
     5     5     6    1
     6     5     7   ar
     7     7     8   ar
     8     8     9   ar
     9     9    10    1
    10    10    11    1
    11    11    12    1
    12    12    13    1
    13    12    14    1
    14    12    15    1
    15    15    16    1
    16    16    17    1
    17    15    18    2
    18     2    19    1
    19    19    20    2
    20    20    21    1
    21     9     3   ar
    22    19    11    1
    23     4    22    1
    24     7    23    1
    25     8    24    1
    26    11    25    1
    27    13    26    1
    28    13    27    1
    29    13    28    1
    30    14    29    1
    31    14    30    1
    32    14    31    1
    33    17    32    1
    34    17    33    1
    35    17    34    1
    36    20    35    1
    37    21    36    1
