@<TRIPOS>MOLECULE
*****
 40 41 0 0 0
SMALL
GASTEIGER

@<TRIPOS>ATOM
      1 O           1.6064   -3.1164   -0.8782 O.2     1  UNL1       -0.2866
      2 C           1.0513   -2.0853   -0.5113 C.2     1  UNL1        0.1993
      3 C           1.7805   -0.8111   -0.3922 C.ar    1  UNL1        0.0672
      4 C           3.1106   -0.7059   -0.8061 C.ar    1  UNL1       -0.0056
      5 C           3.8078    0.4913   -0.6232 C.ar    1  UNL1        0.1210
      6 O           5.0989    0.4726   -1.0724 O.3     1  UNL1       -0.4951
      7 C           5.8565    1.6657   -0.9143 C.3     1  UNL1        0.0788
      8 C           3.1675    1.5732   -0.0122 C.ar    1  UNL1       -0.0165
      9 C           1.8368    1.4617    0.4063 C.ar    1  UNL1       -0.0157
     10 C           1.1416    0.2746    0.1993 C.ar    1  UNL1        0.1325
     11 O          -0.1522    0.2170    0.6383 O.3     1  UNL1       -0.4822
     12 C          -0.9844   -0.6567   -0.1683 C.3     1  UNL1        0.1467
     13 C          -2.4618   -0.3878    0.2615 C.3     1  UNL1        0.1031
     14 C          -2.7039   -0.6930    1.7519 C.3     1  UNL1       -0.0459
     15 C          -3.4892   -1.1518   -0.5947 C.3     1  UNL1       -0.0459
     16 C          -2.7046    1.0958   -0.0594 C.2     1  UNL1        0.3164
     17 O          -3.0749    1.8203    1.0297 O.3     1  UNL1       -0.4675
     18 C          -3.3060    3.2053    0.7672 C.3     1  UNL1        0.0817
     19 O          -2.5886    1.5655   -1.1871 O.2     1  UNL1       -0.2501
     20 C          -0.3948   -2.0531   -0.1280 C.2     1  UNL1        0.0749
     21 C          -0.9783   -3.2225    0.1800 C.2     1  UNL1        0.0912
     22 O          -0.3806   -4.4593    0.1508 O.2     1  UNL1       -0.5138
     23 H           3.6119   -1.5574   -1.2616 H       1  UNL1        0.0662
     24 H           5.9740    1.9208    0.1441 H       1  UNL1        0.0660
     25 H           5.4097    2.4940   -1.4740 H       1  UNL1        0.0660
     26 H           6.8542    1.4854   -1.3261 H       1  UNL1        0.0660
     27 H           3.6762    2.5171    0.1568 H       1  UNL1        0.0655
     28 H           1.3452    2.3049    0.8846 H       1  UNL1        0.0655
     29 H          -0.8954   -0.3185   -1.2141 H       1  UNL1        0.0797
     30 H          -2.0356   -0.1147    2.3998 H       1  UNL1        0.0241
     31 H          -3.7318   -0.4444    2.0425 H       1  UNL1        0.0241
     32 H          -2.5551   -1.7494    1.9885 H       1  UNL1        0.0241
     33 H          -3.5645   -2.2079   -0.3299 H       1  UNL1        0.0241
     34 H          -4.4927   -0.7253   -0.4717 H       1  UNL1        0.0241
     35 H          -3.2434   -1.0892   -1.6611 H       1  UNL1        0.0241
     36 H          -2.3943    3.6818    0.3933 H       1  UNL1        0.0661
     37 H          -4.1291    3.3280    0.0563 H       1  UNL1        0.0661
     38 H          -3.5867    3.6859    1.7084 H       1  UNL1        0.0661
     39 H          -2.0028   -3.3520    0.4965 H       1  UNL1        0.1026
     40 H           0.5217   -4.3592   -0.2320 H       1  UNL1        0.2912
@<TRIPOS>BOND
     1     1     2    2
     2     2     3    1
     3     3     4   ar
     4     4     5   ar
     5     5     6    1
     6     6     7    1
     7     5     8   ar
     8     8     9   ar
     9     9    10   ar
    10    10    11    1
    11    11    12    1
    12    12    13    1
    13    13    14    1
    14    13    15    1
    15    13    16    1
    16    16    17    1
    17    17    18    1
    18    16    19    2
    19     2    20    1
    20    20    21    2
    21    21    22    1
    22    10     3   ar
    23    20    12    1
    24     4    23    1
    25     7    24    1
    26     7    25    1
    27     7    26    1
    28     8    27    1
    29     9    28    1
    30    12    29    1
    31    14    30    1
    32    14    31    1
    33    14    32    1
    34    15    33    1
    35    15    34    1
    36    15    35    1
    37    18    36    1
    38    18    37    1
    39    18    38    1
    40    21    39    1
    41    22    40    1
