@<TRIPOS>MOLECULE
*****
 30 31 0 0 0
SMALL
GASTEIGER

@<TRIPOS>ATOM
      1 O           2.9018    1.4166    1.8065 O.2     1  UNL1       -0.2450
      2 C           2.5093    0.7294    0.8766 C.2     1  UNL1        0.3392
      3 C           1.0713    0.5366    0.5452 C.ar    1  UNL1        0.0591
      4 C           0.1162    1.1832    1.3370 C.ar    1  UNL1       -0.0460
      5 C          -1.2481    1.0322    1.0638 C.ar    1  UNL1       -0.0399
      6 C          -1.6883    0.2291    0.0039 C.ar    1  UNL1        0.0297
      7 N          -3.0619    0.0874   -0.2756 N.pl3   1  UNL1       -0.3298
      8 C          -4.1543    0.2423    0.6438 C.3     1  UNL1        0.0136
      9 C          -5.0228   -0.4630   -0.4026 C.3     1  UNL1       -0.0214
     10 C          -3.7008   -1.0039   -0.9560 C.3     1  UNL1        0.0136
     11 C          -0.7229   -0.4037   -0.7905 C.ar    1  UNL1       -0.0399
     12 C           0.6442   -0.2577   -0.5244 C.ar    1  UNL1       -0.0460
     13 O           3.2962    0.0422    0.0113 O.3     1  UNL1       -0.4614
     14 C           4.7003    0.1766    0.2619 C.3     1  UNL1        0.0900
     15 C           5.4456   -0.6390   -0.7766 C.3     1  UNL1       -0.0306
     16 H           0.4266    1.8123    2.1691 H       1  UNL1        0.0626
     17 H          -1.9663    1.5565    1.6887 H       1  UNL1        0.0636
     18 H          -4.4112    1.2843    0.8472 H       1  UNL1        0.0464
     19 H          -4.0083   -0.3140    1.5756 H       1  UNL1        0.0464
     20 H          -5.7194   -1.2114   -0.0170 H       1  UNL1        0.0295
     21 H          -5.5522    0.2153   -1.0810 H       1  UNL1        0.0295
     22 H          -3.5923   -0.9668   -2.0422 H       1  UNL1        0.0464
     23 H          -3.4011   -1.9823   -0.5659 H       1  UNL1        0.0464
     24 H          -1.0274   -1.0168   -1.6348 H       1  UNL1        0.0636
     25 H           1.3593   -0.7678   -1.1646 H       1  UNL1        0.0626
     26 H           4.9911    1.2302    0.1833 H       1  UNL1        0.0695
     27 H           4.9348   -0.1980    1.2646 H       1  UNL1        0.0695
     28 H           5.2047   -0.2900   -1.7862 H       1  UNL1        0.0262
     29 H           5.1495   -1.6920   -0.7248 H       1  UNL1        0.0262
     30 H           6.5264   -0.5680   -0.6265 H       1  UNL1        0.0262
@<TRIPOS>BOND
     1     1     2    2
     2     2     3    1
     3     3     4   ar
     4     4     5   ar
     5     5     6   ar
     6     6     7    1
     7     7     8    1
     8     8     9    1
     9     9    10    1
    10     6    11   ar
    11    11    12   ar
    12     2    13    1
    13    13    14    1
    14    14    15    1
    15    12     3   ar
    16    10     7    1
    17     4    16    1
    18     5    17    1
    19     8    18    1
    20     8    19    1
    21     9    20    1
    22     9    21    1
    23    10    22    1
    24    10    23    1
    25    11    24    1
    26    12    25    1
    27    14    26    1
    28    14    27    1
    29    15    28    1
    30    15    29    1
    31    15    30    1
