@<TRIPOS>MOLECULE
*****
 40 43 0 0 0
SMALL
GASTEIGER

@<TRIPOS>ATOM
      1 O          -1.2759   -2.0320    2.1750 O.2     1  UNL1       -0.2849
      2 C          -1.1921   -1.4081    1.1195 C.2     1  UNL1        0.2151
      3 C          -2.4243   -1.1811    0.3089 C.ar    1  UNL1        0.0239
      4 C          -3.6653   -1.2155    0.9607 C.ar    1  UNL1       -0.0509
      5 C          -4.8430   -1.0000    0.2434 C.ar    1  UNL1       -0.0611
      6 C          -4.7888   -0.7587   -1.1283 C.ar    1  UNL1       -0.0617
      7 C          -3.5599   -0.7409   -1.7872 C.ar    1  UNL1       -0.0611
      8 C          -2.3783   -0.9569   -1.0744 C.ar    1  UNL1       -0.0509
      9 C           0.0681   -0.8533    0.6395 C.ar    1  UNL1        0.1607
     10 N           1.1496   -1.6252    0.4426 N.ar    1  UNL1       -0.1432
     11 N           2.0693   -0.7394   -0.0096 N.ar    1  UNL1       -0.1490
     12 C           3.3937   -1.1317   -0.3373 C.ar    1  UNL1        0.0862
     13 C           3.7912   -2.4674   -0.1786 C.ar    1  UNL1       -0.0345
     14 C           5.0946   -2.8494   -0.5028 C.ar    1  UNL1       -0.0597
     15 C           6.0017   -1.9051   -0.9835 C.ar    1  UNL1       -0.0616
     16 C           5.6109   -0.5756   -1.1413 C.ar    1  UNL1       -0.0597
     17 C           4.3094   -0.1849   -0.8195 C.ar    1  UNL1       -0.0345
     18 N           1.6408    0.5386   -0.1607 N.ar    1  UNL1       -0.1464
     19 C           0.3832    0.4926    0.3031 C.ar    1  UNL1        0.1241
     20 C          -0.4414    1.6931    0.3917 C.ar    1  UNL1        0.0044
     21 C          -0.4203    2.6362   -0.6454 C.ar    1  UNL1       -0.0524
     22 C          -1.2212    3.7782   -0.5810 C.ar    1  UNL1       -0.0611
     23 C          -2.0440    3.9908    0.5234 C.ar    1  UNL1       -0.0617
     24 C          -2.0610    3.0678    1.5676 C.ar    1  UNL1       -0.0611
     25 C          -1.2600    1.9249    1.5059 C.ar    1  UNL1       -0.0524
     26 H          -3.7194   -1.4085    2.0307 H       1  UNL1        0.0625
     27 H          -5.8023   -1.0238    0.7547 H       1  UNL1        0.0618
     28 H          -5.7070   -0.5922   -1.6868 H       1  UNL1        0.0618
     29 H          -3.5231   -0.5642   -2.8598 H       1  UNL1        0.0618
     30 H          -1.4380   -0.9601   -1.6203 H       1  UNL1        0.0625
     31 H           3.0998   -3.2191    0.1980 H       1  UNL1        0.0639
     32 H           5.4025   -3.8847   -0.3781 H       1  UNL1        0.0618
     33 H           7.0162   -2.2059   -1.2336 H       1  UNL1        0.0618
     34 H           6.3208    0.1587   -1.5139 H       1  UNL1        0.0618
     35 H           4.0252    0.8578   -0.9473 H       1  UNL1        0.0639
     36 H           0.2215    2.4853   -1.5114 H       1  UNL1        0.0624
     37 H          -1.1992    4.5027   -1.3911 H       1  UNL1        0.0618
     38 H          -2.6656    4.8813    0.5746 H       1  UNL1        0.0618
     39 H          -2.6932    3.2414    2.4350 H       1  UNL1        0.0618
     40 H          -1.2751    1.2343    2.3465 H       1  UNL1        0.0624
@<TRIPOS>BOND
     1     1     2    2
     2     2     3    1
     3     3     4   ar
     4     4     5   ar
     5     5     6   ar
     6     6     7   ar
     7     7     8   ar
     8     2     9    1
     9     9    10   ar
    10    10    11   ar
    11    11    12    1
    12    12    13   ar
    13    13    14   ar
    14    14    15   ar
    15    15    16   ar
    16    16    17   ar
    17    11    18   ar
    18    18    19   ar
    19    19    20    1
    20    20    21   ar
    21    21    22   ar
    22    22    23   ar
    23    23    24   ar
    24    24    25   ar
    25     8     3   ar
    26    19     9   ar
    27    17    12   ar
    28    25    20   ar
    29     4    26    1
    30     5    27    1
    31     6    28    1
    32     7    29    1
    33     8    30    1
    34    13    31    1
    35    14    32    1
    36    15    33    1
    37    16    34    1
    38    17    35    1
    39    21    36    1
    40    22    37    1
    41    23    38    1
    42    24    39    1
    43    25    40    1
