@<TRIPOS>MOLECULE
*****
 40 43 0 0 0
SMALL
GASTEIGER

@<TRIPOS>ATOM
      1 O          -1.2248   -0.3171   -3.1287 O.2     1  UNL1       -0.2849
      2 C          -1.2143   -0.2852   -1.9001 C.2     1  UNL1        0.2151
      3 C          -2.4978   -0.0807   -1.1667 C.ar    1  UNL1        0.0239
      4 C          -2.6835   -0.5200    0.1518 C.ar    1  UNL1       -0.0509
      5 C          -3.9016   -0.2967    0.7979 C.ar    1  UNL1       -0.0611
      6 C          -4.9396    0.3530    0.1309 C.ar    1  UNL1       -0.0617
      7 C          -4.7680    0.7753   -1.1863 C.ar    1  UNL1       -0.0611
      8 C          -3.5527    0.5556   -1.8364 C.ar    1  UNL1       -0.0509
      9 C           0.0156   -0.4121   -1.1272 C.ar    1  UNL1        0.1607
     10 N           0.8231   -1.4778   -1.2555 N.ar    1  UNL1       -0.1432
     11 N           1.8125   -1.2102   -0.3698 N.ar    1  UNL1       -0.1490
     12 N           1.6733   -0.0699    0.3514 N.ar    1  UNL1       -0.1464
     13 C           0.5615    0.4781   -0.1610 C.ar    1  UNL1        0.1241
     14 C           0.0765    1.7793    0.2867 C.ar    1  UNL1        0.0044
     15 C           0.1058    2.1075    1.6494 C.ar    1  UNL1       -0.0524
     16 C          -0.3753    3.3416    2.0914 C.ar    1  UNL1       -0.0611
     17 C          -0.8826    4.2605    1.1749 C.ar    1  UNL1       -0.0617
     18 C          -0.9019    3.9512   -0.1839 C.ar    1  UNL1       -0.0611
     19 C          -0.4203    2.7175   -0.6288 C.ar    1  UNL1       -0.0524
     20 C           2.9129   -2.0875   -0.1838 C.ar    1  UNL1        0.0862
     21 C           3.0107   -3.2637   -0.9416 C.ar    1  UNL1       -0.0345
     22 C           4.0944   -4.1243   -0.7552 C.ar    1  UNL1       -0.0597
     23 C           5.0797   -3.8162    0.1826 C.ar    1  UNL1       -0.0616
     24 C           4.9870   -2.6468    0.9372 C.ar    1  UNL1       -0.0597
     25 C           3.9067   -1.7804    0.7572 C.ar    1  UNL1       -0.0345
     26 H          -1.9017   -1.0498    0.6903 H       1  UNL1        0.0625
     27 H          -4.0438   -0.6353    1.8216 H       1  UNL1        0.0618
     28 H          -5.8874    0.5234    0.6364 H       1  UNL1        0.0618
     29 H          -5.5814    1.2728   -1.7090 H       1  UNL1        0.0618
     30 H          -3.4313    0.8846   -2.8670 H       1  UNL1        0.0625
     31 H           0.5041    1.4014    2.3755 H       1  UNL1        0.0624
     32 H          -0.3501    3.5860    3.1503 H       1  UNL1        0.0618
     33 H          -1.2548    5.2224    1.5189 H       1  UNL1        0.0618
     34 H          -1.2854    4.6743   -0.8997 H       1  UNL1        0.0618
     35 H          -0.4248    2.5131   -1.6975 H       1  UNL1        0.0624
     36 H           2.2541   -3.5210   -1.6809 H       1  UNL1        0.0639
     37 H           4.1701   -5.0352   -1.3441 H       1  UNL1        0.0618
     38 H           5.9228   -4.4880    0.3241 H       1  UNL1        0.0618
     39 H           5.7579   -2.4080    1.6658 H       1  UNL1        0.0618
     40 H           3.8545   -0.8719    1.3540 H       1  UNL1        0.0639
@<TRIPOS>BOND
     1     1     2    2
     2     2     3    1
     3     3     4   ar
     4     4     5   ar
     5     5     6   ar
     6     6     7   ar
     7     7     8   ar
     8     2     9    1
     9     9    10   ar
    10    10    11   ar
    11    11    12   ar
    12    12    13   ar
    13    13    14    1
    14    14    15   ar
    15    15    16   ar
    16    16    17   ar
    17    17    18   ar
    18    18    19   ar
    19    11    20    1
    20    20    21   ar
    21    21    22   ar
    22    22    23   ar
    23    23    24   ar
    24    24    25   ar
    25     8     3   ar
    26    13     9   ar
    27    19    14   ar
    28    25    20   ar
    29     4    26    1
    30     5    27    1
    31     6    28    1
    32     7    29    1
    33     8    30    1
    34    15    31    1
    35    16    32    1
    36    17    33    1
    37    18    34    1
    38    19    35    1
    39    21    36    1
    40    22    37    1
    41    23    38    1
    42    24    39    1
    43    25    40    1
