@<TRIPOS>MOLECULE
*****
 36 37 0 0 0
SMALL
GASTEIGER

@<TRIPOS>ATOM
      1 O           1.7152    1.8665   -2.2583 O.2     1  UNL1       -0.2866
      2 C           1.4386    1.1399   -1.3083 C.2     1  UNL1        0.1991
      3 C           2.4230    0.2014   -0.7450 C.ar    1  UNL1        0.0638
      4 C           3.6689    0.0246   -1.3543 C.ar    1  UNL1       -0.0474
      5 C           4.6107   -0.8207   -0.7659 C.ar    1  UNL1       -0.0609
      6 C           4.3118   -1.4731    0.4319 C.ar    1  UNL1       -0.0583
      7 C           3.0684   -1.2888    1.0400 C.ar    1  UNL1       -0.0192
      8 C           2.1192   -0.4642    0.4398 C.ar    1  UNL1        0.1322
      9 O           0.9259   -0.3096    1.0875 O.3     1  UNL1       -0.4822
     10 C          -0.1884   -0.0604    0.1942 C.3     1  UNL1        0.1467
     11 C          -1.4822   -0.1276    1.0643 C.3     1  UNL1        0.1031
     12 C          -1.4876    0.9449    2.1727 C.3     1  UNL1       -0.0459
     13 C          -1.5782   -1.5037    1.7644 C.3     1  UNL1       -0.0459
     14 C          -2.7281    0.0020    0.1930 C.2     1  UNL1        0.3164
     15 O          -2.6703   -0.8373   -0.8793 O.3     1  UNL1       -0.4675
     16 C          -3.8067   -0.7617   -1.7435 C.3     1  UNL1        0.0817
     17 O          -3.6679    0.7480    0.4343 O.2     1  UNL1       -0.2501
     18 C           0.0976    1.1675   -0.6492 C.2     1  UNL1        0.0749
     19 C          -0.7010    2.2186   -0.9014 C.2     1  UNL1        0.0912
     20 O          -0.4057    3.2812   -1.7206 O.2     1  UNL1       -0.5138
     21 H           3.9120    0.5508   -2.2749 H       1  UNL1        0.0626
     22 H           5.5826   -0.9604   -1.2338 H       1  UNL1        0.0618
     23 H           5.0515   -2.1216    0.8959 H       1  UNL1        0.0619
     24 H           2.8412   -1.7913    1.9765 H       1  UNL1        0.0654
     25 H          -0.2264   -0.9137   -0.5020 H       1  UNL1        0.0797
     26 H          -0.6156    0.8509    2.8290 H       1  UNL1        0.0241
     27 H          -1.4928    1.9613    1.7699 H       1  UNL1        0.0241
     28 H          -2.3808    0.8535    2.8027 H       1  UNL1        0.0241
     29 H          -0.7792   -1.6421    2.5009 H       1  UNL1        0.0241
     30 H          -2.5352   -1.6129    2.2888 H       1  UNL1        0.0241
     31 H          -1.5120   -2.3254    1.0421 H       1  UNL1        0.0241
     32 H          -4.7145   -1.0556   -1.2076 H       1  UNL1        0.0661
     33 H          -3.9070    0.2468   -2.1568 H       1  UNL1        0.0661
     34 H          -3.6499   -1.4606   -2.5697 H       1  UNL1        0.0661
     35 H          -1.6941    2.3685   -0.4966 H       1  UNL1        0.1026
     36 H           0.4572    3.1041   -2.1608 H       1  UNL1        0.2912
@<TRIPOS>BOND
     1     1     2    2
     2     2     3    1
     3     3     4   ar
     4     4     5   ar
     5     5     6   ar
     6     6     7   ar
     7     7     8   ar
     8     8     9    1
     9     9    10    1
    10    10    11    1
    11    11    12    1
    12    11    13    1
    13    11    14    1
    14    14    15    1
    15    15    16    1
    16    14    17    2
    17     2    18    1
    18    18    19    2
    19    19    20    1
    20     8     3   ar
    21    18    10    1
    22     4    21    1
    23     5    22    1
    24     6    23    1
    25     7    24    1
    26    10    25    1
    27    12    26    1
    28    12    27    1
    29    12    28    1
    30    13    29    1
    31    13    30    1
    32    13    31    1
    33    16    32    1
    34    16    33    1
    35    16    34    1
    36    19    35    1
    37    20    36    1
