@<TRIPOS>MOLECULE
*****
 29 32 0 0 0
SMALL
GASTEIGER

@<TRIPOS>ATOM
      1 O           4.2113   -1.1720   -1.3968 O.2     1  UNL1       -0.2450
      2 C           3.4675   -0.5618   -0.6457 C.2     1  UNL1        0.3389
      3 C           1.9807   -0.6150   -0.7368 C.ar    1  UNL1        0.0596
      4 C           1.1594    0.1049    0.1503 C.ar    1  UNL1       -0.0380
      5 C          -0.2051   -0.0088   -0.0144 C.ar    1  UNL1        0.0103
      6 C          -0.7673   -0.8367   -1.0594 C.ar    1  UNL1        0.0269
      7 C          -2.2110   -0.7443   -0.9676 C.ar    1  UNL1        0.1463
      8 N          -3.3385   -1.1525   -1.4967 N.ar    1  UNL1       -0.2349
      9 C          -4.3289   -0.5132   -0.7133 C.ar    1  UNL1        0.0538
     10 C          -3.7684    0.2739    0.2806 C.ar    1  UNL1        0.0666
     11 N          -2.4515    0.0850    0.0659 N.ar    1  UNL1       -0.2921
     12 C          -1.3470    0.5872    0.7124 C.ar    1  UNL1        0.0564
     13 C          -1.5905    1.4136    1.7423 C.ar    1  UNL1       -0.0371
     14 C          -3.0144    1.6875    2.0614 C.ar    1  UNL1       -0.0578
     15 C          -4.0537    1.1461    1.3671 C.ar    1  UNL1       -0.0362
     16 C           0.0302   -1.5428   -1.9296 C.ar    1  UNL1       -0.0497
     17 C           1.4156   -1.4254   -1.7600 C.ar    1  UNL1       -0.0471
     18 O           3.8566    0.2465    0.3718 O.3     1  UNL1       -0.4645
     19 C           5.2738    0.3474    0.5215 C.3     1  UNL1        0.0820
     20 H           1.5709    0.7279    0.9365 H       1  UNL1        0.0632
     21 H          -5.3780   -0.6714   -0.9285 H       1  UNL1        0.0851
     22 H          -0.8103    1.8762    2.3339 H       1  UNL1        0.0638
     23 H          -3.2054    2.3571    2.8961 H       1  UNL1        0.0619
     24 H          -5.0833    1.3683    1.6281 H       1  UNL1        0.0639
     25 H          -0.3957   -2.1625   -2.7118 H       1  UNL1        0.0625
     26 H           2.0735   -1.9738   -2.4351 H       1  UNL1        0.0626
     27 H           5.7064   -0.6327    0.7456 H       1  UNL1        0.0661
     28 H           5.7249    0.7749   -0.3795 H       1  UNL1        0.0661
     29 H           5.4784    1.0165    1.3619 H       1  UNL1        0.0661
@<TRIPOS>BOND
     1     1     2    2
     2     2     3    1
     3     3     4   ar
     4     4     5   ar
     5     5     6   ar
     6     6     7   ar
     7     7     8   ar
     8     8     9   ar
     9     9    10   ar
    10    10    11   ar
    11    11    12   ar
    12    12    13   ar
    13    13    14   ar
    14    14    15   ar
    15     6    16   ar
    16    16    17   ar
    17     2    18    1
    18    18    19    1
    19    17     3   ar
    20    12     5   ar
    21    11     7   ar
    22    15    10   ar
    23     4    20    1
    24     9    21    1
    25    13    22    1
    26    14    23    1
    27    15    24    1
    28    16    25    1
    29    17    26    1
    30    19    27    1
    31    19    28    1
    32    19    29    1
