@<TRIPOS>MOLECULE
*****
 33 35 0 0 0
SMALL
GASTEIGER

@<TRIPOS>ATOM
      1 O           0.9970   -1.1421    1.7943 O.2     1  UNL1       -0.2662
      2 C           1.8611   -0.8533    0.9658 C.2     1  UNL1        0.2876
      3 C           3.2667   -0.8937    1.3528 C.ar    1  UNL1        0.1912
      4 C           3.8404   -1.3145    2.5419 C.ar    1  UNL1       -0.0101
      5 C           5.2378   -1.1238    2.4206 C.ar    1  UNL1       -0.0086
      6 C           5.4398   -0.5888    1.1711 C.ar    1  UNL1        0.1708
      7 BR          7.1275   -0.1133    0.4356 Br      1  UNL1       -0.0085
      8 O           4.2554   -0.4415    0.5217 O.2     1  UNL1       -0.4436
      9 N           1.5343   -0.5833   -0.3683 N.am    1  UNL1       -0.2426
     10 C           2.4349   -0.6674   -1.4861 C.3     1  UNL1        0.0416
     11 C           1.5045   -0.6341   -2.6814 C.3     1  UNL1        0.0584
     12 N           0.2485   -0.0383   -2.1840 N.2     1  UNL1       -0.2615
     13 C           0.3394   -0.0945   -0.8905 C.2     1  UNL1        0.1589
     14 S          -0.9251    0.4815    0.1397 S.3     1  UNL1       -0.0856
     15 C          -2.2944    0.5672   -1.0436 C.3     1  UNL1        0.0274
     16 C          -3.5746    0.9888   -0.3783 C.ar    1  UNL1       -0.0191
     17 C          -4.3878    0.0724    0.2958 C.ar    1  UNL1       -0.0549
     18 C          -5.5616    0.5073    0.9042 C.ar    1  UNL1       -0.0433
     19 C          -5.8852    1.8511    0.8197 C.ar    1  UNL1        0.0276
     20 N          -5.1263    2.7678    0.1827 N.ar    1  UNL1       -0.2630
     21 C          -3.9877    2.3179   -0.3931 C.ar    1  UNL1        0.0315
     22 H           3.2973   -1.7081    3.3917 H       1  UNL1        0.0657
     23 H           5.9984   -1.3440    3.1567 H       1  UNL1        0.0661
     24 H           3.0785    0.2193   -1.4886 H       1  UNL1        0.0487
     25 H           3.0473   -1.5731   -1.4534 H       1  UNL1        0.0487
     26 H           1.9230   -0.0418   -3.5008 H       1  UNL1        0.0525
     27 H           1.2978   -1.6438   -3.0538 H       1  UNL1        0.0525
     28 H          -2.4396   -0.4127   -1.5134 H       1  UNL1        0.0430
     29 H          -2.0480    1.2744   -1.8439 H       1  UNL1        0.0430
     30 H          -4.1068   -0.9762    0.3557 H       1  UNL1        0.0621
     31 H          -6.2056   -0.1843    1.4350 H       1  UNL1        0.0633
     32 H          -6.7901    2.2383    1.2788 H       1  UNL1        0.0829
     33 H          -3.3969    3.0868   -0.8844 H       1  UNL1        0.0832
@<TRIPOS>BOND
     1     1     2    2
     2     2     3    1
     3     3     4   ar
     4     4     5   ar
     5     5     6   ar
     6     6     7    1
     7     6     8   ar
     8     2     9   am
     9     9    10    1
    10    10    11    1
    11    11    12    1
    12    12    13    2
    13    13    14    1
    14    14    15    1
    15    15    16    1
    16    16    17   ar
    17    17    18   ar
    18    18    19   ar
    19    19    20   ar
    20    20    21   ar
    21     8     3   ar
    22    13     9    1
    23    21    16   ar
    24     4    22    1
    25     5    23    1
    26    10    24    1
    27    10    25    1
    28    11    26    1
    29    11    27    1
    30    15    28    1
    31    15    29    1
    32    17    30    1
    33    18    31    1
    34    19    32    1
    35    21    33    1
