@<TRIPOS>MOLECULE
*****
 27 29 0 0 0
SMALL
GASTEIGER

@<TRIPOS>ATOM
      1 O          -1.1298    2.0147   -0.9591 O.2     1  UNL1       -0.2691
      2 C          -1.1690    0.8908   -0.4621 C.2     1  UNL1        0.2575
      3 C          -2.4364    0.1897   -0.3154 C.ar    1  UNL1        0.0757
      4 C          -2.8418   -1.0179   -0.8574 C.ar    1  UNL1       -0.0410
      5 C          -4.1778   -1.3550   -0.4836 C.ar    1  UNL1       -0.0355
      6 C          -4.7282   -0.3807    0.3081 C.ar    1  UNL1        0.0787
      7 CL         -6.3090   -0.3791    0.9781 Cl      1  UNL1       -0.0758
      8 S          -3.6882    0.9197    0.6032 S.2     1  UNL1       -0.0722
      9 N          -0.0406    0.2148   -0.0023 N.am    1  UNL1       -0.2665
     10 C          -0.0297   -1.0568    0.7450 C.3     1  UNL1        0.0242
     11 C           1.3981   -1.2854    1.2551 C.3     1  UNL1       -0.0097
     12 C           2.1506   -0.1942    0.5672 C.ar    1  UNL1       -0.0245
     13 C           3.5196    0.0282    0.5994 C.ar    1  UNL1       -0.0568
     14 C           4.0263    1.1379   -0.0771 C.ar    1  UNL1       -0.0614
     15 C           3.1648    2.0051   -0.7637 C.ar    1  UNL1       -0.0600
     16 C           1.7855    1.7729   -0.7853 C.ar    1  UNL1       -0.0400
     17 C           1.2893    0.6664   -0.1165 C.ar    1  UNL1        0.0398
     18 H          -2.2158   -1.6236   -1.5023 H       1  UNL1        0.0631
     19 H          -4.7006   -2.2524   -0.7902 H       1  UNL1        0.0638
     20 H          -0.3204   -1.8623    0.0617 H       1  UNL1        0.0472
     21 H          -0.7531   -1.0203    1.5667 H       1  UNL1        0.0472
     22 H           1.4491   -1.1603    2.3415 H       1  UNL1        0.0329
     23 H           1.7664   -2.2782    0.9805 H       1  UNL1        0.0329
     24 H           4.1843   -0.6369    1.1414 H       1  UNL1        0.0621
     25 H           5.0953    1.3372   -0.0684 H       1  UNL1        0.0618
     26 H           3.5710    2.8692   -1.2845 H       1  UNL1        0.0618
     27 H           1.1402    2.4567   -1.3259 H       1  UNL1        0.0636
@<TRIPOS>BOND
     1     1     2    2
     2     2     3    1
     3     3     4   ar
     4     4     5   ar
     5     5     6   ar
     6     6     7    1
     7     6     8   ar
     8     2     9   am
     9     9    10    1
    10    10    11    1
    11    11    12    1
    12    12    13   ar
    13    13    14   ar
    14    14    15   ar
    15    15    16   ar
    16    16    17   ar
    17     8     3   ar
    18    17     9    1
    19    17    12   ar
    20     4    18    1
    21     5    19    1
    22    10    20    1
    23    10    21    1
    24    11    22    1
    25    11    23    1
    26    13    24    1
    27    14    25    1
    28    15    26    1
    29    16    27    1
