@<TRIPOS>MOLECULE
*****
 40 43 0 0 0
SMALL
GASTEIGER

@<TRIPOS>ATOM
      1 O          -0.7213   -0.1732    2.1303 O.2     1  UNL1       -0.2700
      2 C          -1.2209    0.2467    1.0882 C.2     1  UNL1        0.2474
      3 C          -0.8460    1.6034    0.6426 C.ar    1  UNL1        0.0475
      4 C          -1.8399    2.5949    0.6999 C.ar    1  UNL1       -0.0489
      5 C          -1.5602    3.8884    0.2655 C.ar    1  UNL1       -0.0610
      6 C          -0.2933    4.1923   -0.2250 C.ar    1  UNL1       -0.0611
      7 C           0.6975    3.2063   -0.2692 C.ar    1  UNL1       -0.0504
      8 C           0.4482    1.8969    0.1785 C.ar    1  UNL1        0.0294
      9 C           1.5454    0.9240    0.0982 C.ar    1  UNL1        0.1400
     10 N           2.5149    0.9346   -0.8012 N.ar    1  UNL1       -0.2277
     11 C           3.3291   -0.1288   -0.4983 C.ar    1  UNL1        0.0895
     12 C           4.4915   -0.5819   -1.1382 C.ar    1  UNL1       -0.0342
     13 C           5.1456   -1.7086   -0.6226 C.ar    1  UNL1       -0.0596
     14 C           4.6524   -2.3684    0.5064 C.ar    1  UNL1       -0.0597
     15 C           3.4942   -1.9286    1.1581 C.ar    1  UNL1       -0.0362
     16 C           2.8644   -0.8044    0.6213 C.ar    1  UNL1        0.0665
     17 N           1.7427   -0.1100    0.9887 N.ar    1  UNL1       -0.3379
     18 N          -2.1023   -0.4835    0.3076 N.am    1  UNL1       -0.2931
     19 C          -2.5421   -0.1100   -1.0438 C.3     1  UNL1        0.0385
     20 C          -2.8475   -1.3534   -1.8857 C.3     1  UNL1        0.0635
     21 O          -3.8511   -2.1992   -1.3078 O.3     1  UNL1       -0.3767
     22 C          -3.8627   -2.2008    0.1275 C.3     1  UNL1        0.0635
     23 C          -2.5259   -1.8079    0.7609 C.3     1  UNL1        0.0385
     24 H          -2.8296    2.3574    1.0833 H       1  UNL1        0.0625
     25 H          -2.3271    4.6580    0.3073 H       1  UNL1        0.0618
     26 H          -0.0684    5.1984   -0.5715 H       1  UNL1        0.0618
     27 H           1.6838    3.4648   -0.6556 H       1  UNL1        0.0625
     28 H           4.8680   -0.0645   -2.0131 H       1  UNL1        0.0639
     29 H           6.0483   -2.0713   -1.1084 H       1  UNL1        0.0618
     30 H           5.1793   -3.2407    0.8879 H       1  UNL1        0.0618
     31 H           3.1104   -2.4379    2.0354 H       1  UNL1        0.0639
     32 H           1.1378   -0.3232    1.7746 H       1  UNL1        0.1674
     33 H          -1.7819    0.5005   -1.5389 H       1  UNL1        0.0487
     34 H          -3.4512    0.4894   -0.9206 H       1  UNL1        0.0487
     35 H          -3.1962   -1.0604   -2.8809 H       1  UNL1        0.0575
     36 H          -1.9412   -1.9557   -2.0199 H       1  UNL1        0.0575
     37 H          -4.1585   -3.2027    0.4542 H       1  UNL1        0.0575
     38 H          -4.6488   -1.5066    0.4466 H       1  UNL1        0.0575
     39 H          -1.7403   -2.5111    0.4600 H       1  UNL1        0.0487
     40 H          -2.5970   -1.8235    1.8535 H       1  UNL1        0.0487
@<TRIPOS>BOND
     1     1     2    2
     2     2     3    1
     3     3     4   ar
     4     4     5   ar
     5     5     6   ar
     6     6     7   ar
     7     7     8   ar
     8     8     9    1
     9     9    10   ar
    10    10    11   ar
    11    11    12   ar
    12    12    13   ar
    13    13    14   ar
    14    14    15   ar
    15    15    16   ar
    16    16    17   ar
    17     2    18   am
    18    18    19    1
    19    19    20    1
    20    20    21    1
    21    21    22    1
    22    22    23    1
    23     8     3   ar
    24    17     9   ar
    25    23    18    1
    26    16    11   ar
    27     4    24    1
    28     5    25    1
    29     6    26    1
    30     7    27    1
    31    12    28    1
    32    13    29    1
    33    14    30    1
    34    15    31    1
    35    17    32    1
    36    19    33    1
    37    19    34    1
    38    20    35    1
    39    20    36    1
    40    22    37    1
    41    22    38    1
    42    23    39    1
    43    23    40    1
