@<TRIPOS>MOLECULE
*****
 41 47 0 0 0
SMALL
GASTEIGER

@<TRIPOS>ATOM
      1 SI          3.8449    0.4992    2.1245 Si      1  UNL1        0.0000
      2 C           5.7317    0.8315    1.9909 C.2     1  UNL1        0.0000
      3 C           6.1221    0.9445    0.7020 C.2     1  UNL1        0.0000
      4 C           5.0719    0.7962   -0.2580 C.ar    1  UNL1        0.0000
      5 C           5.0953    0.8512   -1.6255 C.ar    1  UNL1        0.0000
      6 S           3.5105    0.6042   -2.2739 S.2     1  UNL1        0.0000
      7 C           2.7993    0.4164   -0.7083 C.ar    1  UNL1        0.0000
      8 C           3.7669    0.5516    0.2433 C.ar    1  UNL1        0.0000
      9 C           1.3613    0.1672   -0.5822 C.ar    1  UNL1        0.0000
     10 C           0.5222    1.2836   -0.5778 C.ar    1  UNL1        0.0000
     11 C          -0.8652    1.1195   -0.4419 C.ar    1  UNL1        0.0000
     12 S          -1.9956    2.4162   -0.4149 S.2     1  UNL1        0.0000
     13 C          -3.2763    1.3549   -0.2709 C.ar    1  UNL1        0.0000
     14 C          -2.9399    0.0163   -0.2319 C.ar    1  UNL1        0.0000
     15 C          -4.0284   -0.8855   -0.1433 C.ar    1  UNL1        0.0000
     16 N          -5.3458   -0.5435   -0.0712 N.ar    1  UNL1        0.0000
     17 C          -5.6881    0.7600   -0.0936 C.ar    1  UNL1        0.0000
     18 C          -6.9396    1.4074   -0.0372 C.ar    1  UNL1        0.0000
     19 C          -6.6722    2.7598   -0.1067 C.ar    1  UNL1        0.0000
     20 O          -5.3298    2.9839   -0.2024 O.2     1  UNL1        0.0000
     21 C          -4.7533    1.7587   -0.1913 C.ar    1  UNL1        0.0000
     22 C          -1.4729   -0.1396   -0.3054 C.ar    1  UNL1        0.0000
     23 C          -0.5854   -1.2915   -0.2749 C.ar    1  UNL1        0.0000
     24 C          -1.0757   -2.6068   -0.0846 C.ar    1  UNL1        0.0000
     25 C          -0.2342   -3.7216   -0.0694 C.ar    1  UNL1        0.0000
     26 C           1.1281   -3.5592   -0.2412 C.ar    1  UNL1        0.0000
     27 C           1.6484   -2.2795   -0.4157 C.ar    1  UNL1        0.0000
     28 C           0.8253   -1.1263   -0.4280 C.ar    1  UNL1        0.0000
     29 H           3.5981   -0.8423    2.7093 H       1  UNL1        0.0000
     30 H           3.1631    1.6333    2.7967 H       1  UNL1        0.0000
     31 H           6.3416    0.9070    2.8765 H       1  UNL1        0.0000
     32 H           7.1479    1.1337    0.4073 H       1  UNL1        0.0000
     33 H           5.9323    1.0221   -2.2877 H       1  UNL1        0.0000
     34 H           0.9421    2.2826   -0.6830 H       1  UNL1        0.0000
     35 H          -3.8899   -1.9594   -0.1382 H       1  UNL1        0.0000
     36 H          -7.9121    0.9459    0.0418 H       1  UNL1        0.0000
     37 H          -7.2911    3.6466   -0.1015 H       1  UNL1        0.0000
     38 H          -2.1242   -2.8077    0.0741 H       1  UNL1        0.0000
     39 H          -0.6500   -4.7154    0.0777 H       1  UNL1        0.0000
     40 H           1.7901   -4.4209   -0.2363 H       1  UNL1        0.0000
     41 H           2.7262   -2.1942   -0.5469 H       1  UNL1        0.0000
@<TRIPOS>BOND
     1     1     2    1
     2     2     3    2
     3     3     4    1
     4     4     5   ar
     5     5     6   ar
     6     6     7   ar
     7     7     8   ar
     8     7     9    1
     9     9    10   ar
    10    10    11   ar
    11    11    12   ar
    12    12    13   ar
    13    13    14   ar
    14    14    15   ar
    15    15    16   ar
    16    16    17   ar
    17    17    18   ar
    18    18    19   ar
    19    19    20   ar
    20    20    21   ar
    21    14    22   ar
    22    22    23   ar
    23    23    24   ar
    24    24    25   ar
    25    25    26   ar
    26    26    27   ar
    27    27    28   ar
    28     8     1    1
    29    28     9   ar
    30     8     4   ar
    31    22    11   ar
    32    28    23   ar
    33    21    13   ar
    34    21    17   ar
    35     1    29    1
    36     1    30    1
    37     2    31    1
    38     3    32    1
    39     5    33    1
    40    10    34    1
    41    15    35    1
    42    18    36    1
    43    19    37    1
    44    24    38    1
    45    25    39    1
    46    26    40    1
    47    27    41    1
