@<TRIPOS>MOLECULE
*****
 38 40 0 0 0
SMALL
GASTEIGER

@<TRIPOS>ATOM
      1 O          -0.2817   -0.9436    2.6675 O.2     1  UNL1       -0.2696
      2 C          -0.6286   -0.5001    1.5723 C.2     1  UNL1        0.2526
      3 C          -1.8344   -1.1100    0.9619 C.ar    1  UNL1        0.0553
      4 C          -2.9148   -1.4719    1.7698 C.ar    1  UNL1       -0.0467
      5 C          -4.0253   -2.0835    1.1933 C.ar    1  UNL1       -0.0429
      6 C          -4.0071   -2.3269   -0.1715 C.ar    1  UNL1        0.0276
      7 N          -2.9691   -2.0121   -0.9777 N.ar    1  UNL1       -0.2625
      8 C          -1.8993   -1.4185   -0.3909 C.ar    1  UNL1        0.0397
      9 N           0.1116    0.4493    0.8529 N.am    1  UNL1       -0.2631
     10 C           1.5085    0.6572    1.2676 C.3     1  UNL1        0.0451
     11 C           2.5055   -0.1734    0.4838 C.ar    1  UNL1       -0.0297
     12 C           2.4130   -1.5727    0.4448 C.ar    1  UNL1       -0.0571
     13 C           3.3441   -2.3285   -0.2703 C.ar    1  UNL1       -0.0615
     14 C           4.3863   -1.6972   -0.9449 C.ar    1  UNL1       -0.0617
     15 C           4.5039   -0.3101   -0.8984 C.ar    1  UNL1       -0.0615
     16 C           3.5736    0.4470   -0.1837 C.ar    1  UNL1       -0.0571
     17 C          -0.4728    1.4161   -0.0316 C.ar    1  UNL1        0.0369
     18 C          -1.7817    1.8823    0.1647 C.ar    1  UNL1       -0.0403
     19 C          -2.3445    2.8321   -0.6935 C.ar    1  UNL1       -0.0600
     20 C          -1.6046    3.3371   -1.7577 C.ar    1  UNL1       -0.0616
     21 C          -0.3005    2.8969   -1.9598 C.ar    1  UNL1       -0.0600
     22 C           0.2619    1.9483   -1.0998 C.ar    1  UNL1       -0.0403
     23 H          -2.8878   -1.2835    2.8403 H       1  UNL1        0.0626
     24 H          -4.8801   -2.3714    1.7952 H       1  UNL1        0.0633
     25 H          -4.8491   -2.8030   -0.6665 H       1  UNL1        0.0829
     26 H          -1.0740   -1.2076   -1.0654 H       1  UNL1        0.0837
     27 H           1.6276    0.4051    2.3286 H       1  UNL1        0.0518
     28 H           1.7492    1.7259    1.1978 H       1  UNL1        0.0518
     29 H           1.6209   -2.0893    0.9824 H       1  UNL1        0.0621
     30 H           3.2580   -3.4119   -0.2936 H       1  UNL1        0.0618
     31 H           5.1114   -2.2873   -1.4989 H       1  UNL1        0.0618
     32 H           5.3234    0.1822   -1.4156 H       1  UNL1        0.0618
     33 H           3.6892    1.5284   -0.1530 H       1  UNL1        0.0621
     34 H          -2.3793    1.5499    1.0089 H       1  UNL1        0.0636
     35 H          -3.3601    3.1810   -0.5238 H       1  UNL1        0.0618
     36 H          -2.0428    4.0728   -2.4270 H       1  UNL1        0.0618
     37 H           0.2803    3.2836   -2.7935 H       1  UNL1        0.0618
     38 H           1.2691    1.6076   -1.3146 H       1  UNL1        0.0636
@<TRIPOS>BOND
     1     1     2    2
     2     2     3    1
     3     3     4   ar
     4     4     5   ar
     5     5     6   ar
     6     6     7   ar
     7     7     8   ar
     8     2     9   am
     9     9    10    1
    10    10    11    1
    11    11    12   ar
    12    12    13   ar
    13    13    14   ar
    14    14    15   ar
    15    15    16   ar
    16     9    17    1
    17    17    18   ar
    18    18    19   ar
    19    19    20   ar
    20    20    21   ar
    21    21    22   ar
    22     8     3   ar
    23    16    11   ar
    24    22    17   ar
    25     4    23    1
    26     5    24    1
    27     6    25    1
    28     8    26    1
    29    10    27    1
    30    10    28    1
    31    12    29    1
    32    13    30    1
    33    14    31    1
    34    15    32    1
    35    16    33    1
    36    18    34    1
    37    19    35    1
    38    20    36    1
    39    21    37    1
    40    22    38    1
