@<TRIPOS>MOLECULE
*****
 36 38 0 0 0
SMALL
GASTEIGER

@<TRIPOS>ATOM
      1 O           0.2096   -2.1432    0.8164 O.2     1  UNL1       -0.2694
      2 C           0.8183   -1.3162    0.1395 C.2     1  UNL1        0.2539
      3 C           2.2680   -1.2772    0.1581 C.ar    1  UNL1        0.0740
      4 C           3.0921   -0.9867    1.2269 C.ar    1  UNL1       -0.0425
      5 C           4.4719   -1.0984    0.8876 C.ar    1  UNL1       -0.0540
      6 C           4.6509   -1.5114   -0.4145 C.ar    1  UNL1       -0.0236
      7 S           3.1617   -1.7784   -1.2150 S.2     1  UNL1       -0.0921
      8 N           0.1287   -0.3825   -0.6519 N.am    1  UNL1       -0.2851
      9 C           0.7651    0.8344   -1.1770 C.3     1  UNL1        0.0733
     10 C           0.5136    1.9729   -0.2543 C.ar    1  UNL1        0.1221
     11 C           1.1747    2.4674    0.8511 C.ar    1  UNL1       -0.0191
     12 C           0.4222    3.5789    1.3017 C.ar    1  UNL1       -0.0236
     13 C          -0.6447    3.6947    0.4424 C.ar    1  UNL1        0.0921
     14 O          -0.5967    2.7254   -0.5068 O.2     1  UNL1       -0.4662
     15 C          -1.3425   -0.4429   -0.7427 C.3     1  UNL1        0.0475
     16 C          -1.8792   -1.7637   -1.3231 C.3     1  UNL1       -0.0133
     17 C          -3.3977   -1.6500   -1.2763 C.3     1  UNL1        0.0675
     18 S          -3.7648   -0.7163    0.2027 S.O2    1  UNL1       -0.0292
     19 O          -4.5210    0.4584   -0.1827 O.2     1  UNL1       -0.1743
     20 O          -4.2303   -1.6239    1.2300 O.2     1  UNL1       -0.1743
     21 C          -2.0922   -0.2178    0.5730 C.3     1  UNL1        0.0843
     22 H           2.7189   -0.7073    2.2054 H       1  UNL1        0.0630
     23 H           5.2916   -0.9050    1.5693 H       1  UNL1        0.0623
     24 H           5.5847   -1.6916   -0.9299 H       1  UNL1        0.0693
     25 H           0.3549    1.0354   -2.1732 H       1  UNL1        0.0545
     26 H           1.8420    0.7179   -1.3016 H       1  UNL1        0.0545
     27 H           2.0861    2.0747    1.2801 H       1  UNL1        0.0652
     28 H           0.6302    4.2189    2.1479 H       1  UNL1        0.0649
     29 H          -1.4824    4.3756    0.3743 H       1  UNL1        0.1029
     30 H          -1.6528    0.3425   -1.4468 H       1  UNL1        0.0517
     31 H          -1.5678   -2.6265   -0.7258 H       1  UNL1        0.0299
     32 H          -1.5241   -1.9337   -2.3449 H       1  UNL1        0.0299
     33 H          -3.7745   -1.0821   -2.1321 H       1  UNL1        0.0500
     34 H          -3.8883   -2.6244   -1.2311 H       1  UNL1        0.0500
     35 H          -2.0900    0.8265    0.8905 H       1  UNL1        0.0518
     36 H          -1.7361   -0.8442    1.3932 H       1  UNL1        0.0518
@<TRIPOS>BOND
     1     1     2    2
     2     2     3    1
     3     3     4   ar
     4     4     5   ar
     5     5     6   ar
     6     6     7   ar
     7     2     8   am
     8     8     9    1
     9     9    10    1
    10    10    11   ar
    11    11    12   ar
    12    12    13   ar
    13    13    14   ar
    14     8    15    1
    15    15    16    1
    16    16    17    1
    17    17    18    1
    18    18    19    2
    19    18    20    2
    20    18    21    1
    21     7     3   ar
    22    14    10   ar
    23    21    15    1
    24     4    22    1
    25     5    23    1
    26     6    24    1
    27     9    25    1
    28     9    26    1
    29    11    27    1
    30    12    28    1
    31    13    29    1
    32    15    30    1
    33    16    31    1
    34    16    32    1
    35    17    33    1
    36    17    34    1
    37    21    35    1
    38    21    36    1
