@<TRIPOS>MOLECULE
*****
 22 23 0 0 0
SMALL
GASTEIGER

@<TRIPOS>ATOM
      1 O           0.8163   -1.1424    1.9649 O.2     1  UNL1       -0.2864
      2 C           0.7151   -0.5749    0.8768 C.2     1  UNL1        0.1997
      3 C           1.8875   -0.1639    0.1256 C.ar    1  UNL1        0.0595
      4 C           3.2029   -0.6621    0.2792 C.ar    1  UNL1        0.0600
      5 N           4.0791   -0.0769   -0.5406 N.ar    1  UNL1       -0.1816
      6 N           3.3414    0.8275   -1.1995 N.ar    1  UNL1       -0.2840
      7 C           2.0245    0.8199   -0.8353 C.ar    1  UNL1        0.0331
      8 C          -0.6566   -0.2946    0.3822 C.ar    1  UNL1        0.0664
      9 C          -0.9624   -0.3154   -0.9835 C.ar    1  UNL1       -0.0121
     10 C          -2.2613   -0.0392   -1.4002 C.ar    1  UNL1        0.1243
     11 F          -2.5437   -0.0494   -2.7091 F       1  UNL1       -0.2055
     12 C          -3.2699    0.2437   -0.4861 C.ar    1  UNL1       -0.0230
     13 C          -2.9817    0.2336    0.8769 C.ar    1  UNL1       -0.0168
     14 C          -1.6856   -0.0500    1.3074 C.ar    1  UNL1        0.1278
     15 O          -1.4937   -0.0767    2.6630 O.3     1  UNL1       -0.5061
     16 H           3.5484   -1.4339    0.9570 H       1  UNL1        0.0855
     17 H           3.8049    1.4232   -1.8789 H       1  UNL1        0.1882
     18 H           1.3287    1.5201   -1.2755 H       1  UNL1        0.0831
     19 H          -0.2202   -0.5588   -1.7367 H       1  UNL1        0.0654
     20 H          -4.2748    0.4555   -0.8384 H       1  UNL1        0.0647
     21 H          -3.7643    0.4333    1.6047 H       1  UNL1        0.0655
     22 H          -0.6345   -0.5187    2.8461 H       1  UNL1        0.2922
@<TRIPOS>BOND
     1     1     2    2
     2     2     3    1
     3     3     4   ar
     4     4     5   ar
     5     5     6   ar
     6     6     7   ar
     7     2     8    1
     8     8     9   ar
     9     9    10   ar
    10    10    11    1
    11    10    12   ar
    12    12    13   ar
    13    13    14   ar
    14    14    15    1
    15     7     3   ar
    16    14     8   ar
    17     4    16    1
    18     6    17    1
    19     7    18    1
    20     9    19    1
    21    12    20    1
    22    13    21    1
    23    15    22    1
