@<TRIPOS>MOLECULE
*****
 33 35 0 0 0
SMALL
GASTEIGER

@<TRIPOS>ATOM
      1 O           3.5996   -1.3367    1.5697 O.2     1  UNL1       -0.2682
      2 C           3.2304   -0.5087    0.7332 C.2     1  UNL1        0.2673
      3 C           4.2459    0.2613   -0.0082 C.ar    1  UNL1        0.1542
      4 C           5.6339    0.2959    0.3790 C.ar    1  UNL1        0.0688
      5 N           6.4507    1.0143   -0.3934 N.ar    1  UNL1       -0.1985
      6 S           5.4629    1.6036   -1.6051 S.2     1  UNL1        0.1160
      7 N           3.9976    0.9522   -1.1341 N.ar    1  UNL1       -0.1861
      8 N           1.8675   -0.3089    0.4945 N.am    1  UNL1       -0.2932
      9 C           1.2881    0.8006   -0.2741 C.3     1  UNL1        0.0308
     10 C          -0.1866    1.0917    0.0726 C.3     1  UNL1        0.0280
     11 N          -1.0162   -0.1177   -0.0246 N.pl3   1  UNL1       -0.3269
     12 C          -2.3894   -0.0446   -0.2127 C.ar    1  UNL1        0.0298
     13 C          -3.1114    1.1428   -0.0075 C.ar    1  UNL1       -0.0407
     14 C          -4.4970    1.2138   -0.2024 C.ar    1  UNL1       -0.0600
     15 C          -5.2019    0.0907   -0.6161 C.ar    1  UNL1       -0.0616
     16 C          -4.5188   -1.0986   -0.8346 C.ar    1  UNL1       -0.0600
     17 C          -3.1338   -1.1595   -0.6353 C.ar    1  UNL1       -0.0407
     18 C          -0.3768   -1.4025    0.3096 C.3     1  UNL1        0.0280
     19 C           0.9070   -1.2085    1.1362 C.3     1  UNL1        0.0308
     20 H           6.0596   -0.2078    1.2377 H       1  UNL1        0.0860
     21 H           1.8695    1.7106   -0.0979 H       1  UNL1        0.0480
     22 H           1.3635    0.5273   -1.3331 H       1  UNL1        0.0480
     23 H          -0.5373    1.8663   -0.6197 H       1  UNL1        0.0479
     24 H          -0.2512    1.4896    1.0929 H       1  UNL1        0.0479
     25 H          -2.6113    2.0441    0.3343 H       1  UNL1        0.0636
     26 H          -5.0198    2.1500   -0.0260 H       1  UNL1        0.0618
     27 H          -6.2759    0.1427   -0.7696 H       1  UNL1        0.0618
     28 H          -5.0562   -1.9826   -1.1670 H       1  UNL1        0.0618
     29 H          -2.6394   -2.1040   -0.8453 H       1  UNL1        0.0636
     30 H          -1.0510   -2.0388    0.8956 H       1  UNL1        0.0479
     31 H          -0.1339   -1.9267   -0.6226 H       1  UNL1        0.0479
     32 H           0.6634   -0.7677    2.1109 H       1  UNL1        0.0480
     33 H           1.3685   -2.1843    1.3233 H       1  UNL1        0.0480
@<TRIPOS>BOND
     1     1     2    2
     2     2     3    1
     3     3     4   ar
     4     4     5   ar
     5     5     6   ar
     6     6     7   ar
     7     2     8   am
     8     8     9    1
     9     9    10    1
    10    10    11    1
    11    11    12    1
    12    12    13   ar
    13    13    14   ar
    14    14    15   ar
    15    15    16   ar
    16    16    17   ar
    17    11    18    1
    18    18    19    1
    19     7     3   ar
    20    19     8    1
    21    17    12   ar
    22     4    20    1
    23     9    21    1
    24     9    22    1
    25    10    23    1
    26    10    24    1
    27    13    25    1
    28    14    26    1
    29    15    27    1
    30    16    28    1
    31    17    29    1
    32    18    30    1
    33    18    31    1
    34    19    32    1
    35    19    33    1
