@<TRIPOS>MOLECULE
*****
 26 27 0 0 0
SMALL
GASTEIGER

@<TRIPOS>ATOM
      1 O          -0.0068   -2.5552    0.3196 O.2     1  UNL1       -0.2699
      2 C           0.1368   -1.3510    0.1227 C.2     1  UNL1        0.2497
      3 C           1.5070   -0.7962   -0.0414 C.ar    1  UNL1        0.0730
      4 C           2.3875   -0.9895    0.9429 C.ar    1  UNL1        0.1081
      5 O           3.7119   -0.5274    0.8859 O.2     1  UNL1       -0.4290
      6 C           4.1713    0.1454   -0.2230 C.ar    1  UNL1        0.3509
      7 O           5.3179    0.5781   -0.2679 O.2     1  UNL1       -0.2440
      8 C           3.2038    0.3183   -1.3505 C.ar    1  UNL1        0.1029
      9 BR          3.7910    1.1769   -2.9028 Br      1  UNL1       -0.0429
     10 C           1.9471   -0.1373   -1.2409 C.ar    1  UNL1       -0.0258
     11 N          -0.9201   -0.4646    0.0407 N.am    1  UNL1       -0.2931
     12 C          -0.8157    1.0005    0.0510 C.3     1  UNL1        0.0385
     13 C          -2.0564    1.6383    0.6857 C.3     1  UNL1        0.0635
     14 O          -3.2764    1.2867    0.0221 O.3     1  UNL1       -0.3767
     15 C          -3.2795   -0.0323   -0.5437 C.3     1  UNL1        0.0635
     16 C          -2.2841   -0.9926    0.1124 C.3     1  UNL1        0.0385
     17 H           2.1974   -1.5057    1.8752 H       1  UNL1        0.1038
     18 H           1.2376   -0.0400   -2.0573 H       1  UNL1        0.0639
     19 H           0.0833    1.3148    0.5888 H       1  UNL1        0.0487
     20 H          -0.7318    1.3151   -0.9953 H       1  UNL1        0.0487
     21 H          -2.1475    1.3352    1.7354 H       1  UNL1        0.0575
     22 H          -1.9725    2.7295    0.6663 H       1  UNL1        0.0575
     23 H          -3.0535    0.0720   -1.6113 H       1  UNL1        0.0575
     24 H          -4.2978   -0.4250   -0.4614 H       1  UNL1        0.0575
     25 H          -2.5197   -1.1167    1.1760 H       1  UNL1        0.0487
     26 H          -2.3306   -1.9774   -0.3644 H       1  UNL1        0.0487
@<TRIPOS>BOND
     1     1     2    2
     2     2     3    1
     3     3     4   ar
     4     4     5   ar
     5     5     6   ar
     6     6     7    2
     7     6     8   ar
     8     8     9    1
     9     8    10   ar
    10     2    11   am
    11    11    12    1
    12    12    13    1
    13    13    14    1
    14    14    15    1
    15    15    16    1
    16    10     3   ar
    17    16    11    1
    18     4    17    1
    19    10    18    1
    20    12    19    1
    21    12    20    1
    22    13    21    1
    23    13    22    1
    24    15    23    1
    25    15    24    1
    26    16    25    1
    27    16    26    1
