@<TRIPOS>MOLECULE
*****
 39 42 0 0 0
SMALL
GASTEIGER

@<TRIPOS>ATOM
      1 O           1.9200    2.7026    1.5714 O.2     1  UNL1       -0.2665
      2 C           1.7848    1.6569    0.9289 C.2     1  UNL1        0.2857
      3 C           2.9744    0.8930    0.4577 C.ar    1  UNL1        0.2386
      4 N           2.9351   -0.4019   -0.0227 N.ar    1  UNL1       -0.1850
      5 C           4.1867   -0.6922   -0.2892 C.ar    1  UNL1        0.2534
      6 N           4.7224   -1.8438   -0.7951 N.ar    1  UNL1       -0.2190
      7 C           6.0118   -1.8474   -0.9478 C.ar    1  UNL1        0.0329
      8 C           6.9444   -0.7282   -0.6307 C.ar    1  UNL1       -0.0252
      9 C           6.3603    0.3748   -0.1433 C.ar    1  UNL1        0.0344
     10 N           4.9826    0.4091    0.0329 N.ar    1  UNL1       -0.2034
     11 N           4.2169    1.4118    0.5004 N.ar    1  UNL1       -0.1388
     12 N           0.5005    1.1709    0.6467 N.am    1  UNL1       -0.2919
     13 C          -0.6529    1.8470    1.2399 C.3     1  UNL1        0.0308
     14 C          -1.8149    0.8850    1.5448 C.3     1  UNL1        0.0280
     15 N          -2.2216    0.1151    0.3555 N.pl3   1  UNL1       -0.3269
     16 C          -3.5296   -0.3285    0.2193 C.ar    1  UNL1        0.0298
     17 C          -4.3451   -0.5675    1.3389 C.ar    1  UNL1       -0.0407
     18 C          -5.6648   -1.0204    1.2165 C.ar    1  UNL1       -0.0600
     19 C          -6.2082   -1.2501   -0.0407 C.ar    1  UNL1       -0.0616
     20 C          -5.4289   -1.0291   -1.1691 C.ar    1  UNL1       -0.0600
     21 C          -4.1093   -0.5776   -1.0357 C.ar    1  UNL1       -0.0407
     22 C          -1.2620    0.0395   -0.7563 C.3     1  UNL1        0.0280
     23 C           0.1971    0.0548   -0.2566 C.3     1  UNL1        0.0308
     24 H           6.4945   -2.7536   -1.3513 H       1  UNL1        0.0831
     25 H           8.0055   -0.8426   -0.7988 H       1  UNL1        0.0648
     26 H           6.8994    1.2709    0.1337 H       1  UNL1        0.0832
     27 H          -0.9759    2.6100    0.5209 H       1  UNL1        0.0480
     28 H          -0.3616    2.3652    2.1598 H       1  UNL1        0.0480
     29 H          -2.6472    1.4877    1.9281 H       1  UNL1        0.0479
     30 H          -1.5098    0.1826    2.3298 H       1  UNL1        0.0479
     31 H          -3.9549   -0.4283    2.3433 H       1  UNL1        0.0636
     32 H          -6.2597   -1.1978    2.1083 H       1  UNL1        0.0618
     33 H          -7.2310   -1.6017   -0.1405 H       1  UNL1        0.0618
     34 H          -5.8422   -1.2033   -2.1589 H       1  UNL1        0.0618
     35 H          -3.5492   -0.4029   -1.9495 H       1  UNL1        0.0636
     36 H          -1.3995   -0.8831   -1.3328 H       1  UNL1        0.0479
     37 H          -1.4269    0.8905   -1.4288 H       1  UNL1        0.0479
     38 H           0.4006   -0.8684    0.2985 H       1  UNL1        0.0480
     39 H           0.8582    0.1008   -1.1272 H       1  UNL1        0.0480
@<TRIPOS>BOND
     1     1     2    2
     2     2     3    1
     3     3     4   ar
     4     4     5   ar
     5     5     6   ar
     6     6     7   ar
     7     7     8   ar
     8     8     9   ar
     9     9    10   ar
    10    10    11   ar
    11     2    12   am
    12    12    13    1
    13    13    14    1
    14    14    15    1
    15    15    16    1
    16    16    17   ar
    17    17    18   ar
    18    18    19   ar
    19    19    20   ar
    20    20    21   ar
    21    15    22    1
    22    22    23    1
    23    11     3   ar
    24    23    12    1
    25    10     5   ar
    26    21    16   ar
    27     7    24    1
    28     8    25    1
    29     9    26    1
    30    13    27    1
    31    13    28    1
    32    14    29    1
    33    14    30    1
    34    17    31    1
    35    18    32    1
    36    19    33    1
    37    20    34    1
    38    21    35    1
    39    22    36    1
    40    22    37    1
    41    23    38    1
    42    23    39    1
