@<TRIPOS>MOLECULE
*****
 44 47 0 0 0
SMALL
GASTEIGER

@<TRIPOS>ATOM
      1 O           1.5375   -1.9915   -0.8419 O.2     1  UNL1       -0.2682
      2 C           1.2173   -0.9904   -0.1952 C.2     1  UNL1        0.2686
      3 C           2.2558   -0.2161    0.5124 C.ar    1  UNL1        0.1712
      4 N           1.9965    0.6524    1.5130 N.ar    1  UNL1       -0.0731
      5 O           3.2160    1.1634    1.9276 O.2     1  UNL1       -0.3586
      6 C           4.1918    0.5920    1.1971 C.ar    1  UNL1        0.1412
      7 C           3.6617   -0.2983    0.3025 C.ar    1  UNL1        0.0269
      8 C           4.5080   -1.0786   -0.6349 C.3     1  UNL1       -0.0221
      9 C           5.9924   -1.0273   -0.2013 C.3     1  UNL1       -0.0485
     10 C           6.4402    0.3834    0.2442 C.3     1  UNL1       -0.0458
     11 C           5.6108    0.9205    1.4302 C.3     1  UNL1        0.0085
     12 N          -0.1230   -0.5947   -0.1370 N.am    1  UNL1       -0.2932
     13 C          -0.6084    0.7002    0.3573 C.3     1  UNL1        0.0308
     14 C          -1.9797    1.1077   -0.2201 C.3     1  UNL1        0.0280
     15 N          -2.9867    0.0524   -0.0341 N.pl3   1  UNL1       -0.3269
     16 C          -4.3447    0.3360   -0.0243 C.ar    1  UNL1        0.0298
     17 C          -5.2834   -0.5729    0.4939 C.ar    1  UNL1       -0.0407
     18 C          -6.6563   -0.2961    0.5133 C.ar    1  UNL1       -0.0600
     19 C          -7.1309    0.9086    0.0111 C.ar    1  UNL1       -0.0616
     20 C          -6.2308    1.8318   -0.5054 C.ar    1  UNL1       -0.0600
     21 C          -4.8593    1.5460   -0.5185 C.ar    1  UNL1       -0.0407
     22 C          -2.5094   -1.3412   -0.0312 C.3     1  UNL1        0.0280
     23 C          -1.1367   -1.4786   -0.7130 C.3     1  UNL1        0.0308
     24 H           4.4098   -0.6531   -1.6408 H       1  UNL1        0.0315
     25 H           4.1841   -2.1234   -0.6822 H       1  UNL1        0.0315
     26 H           6.1478   -1.7232    0.6335 H       1  UNL1        0.0269
     27 H           6.6236   -1.3748   -1.0271 H       1  UNL1        0.0269
     28 H           7.5014    0.3699    0.5179 H       1  UNL1        0.0269
     29 H           6.3391    1.0678   -0.6084 H       1  UNL1        0.0269
     30 H           5.7574    2.0004    1.5333 H       1  UNL1        0.0344
     31 H           5.9451    0.4437    2.3585 H       1  UNL1        0.0344
     32 H           0.1152    1.4830    0.1108 H       1  UNL1        0.0480
     33 H          -0.6859    0.6154    1.4475 H       1  UNL1        0.0480
     34 H          -2.2828    2.0340    0.2825 H       1  UNL1        0.0479
     35 H          -1.8771    1.3178   -1.2918 H       1  UNL1        0.0479
     36 H          -4.9575   -1.5167    0.9222 H       1  UNL1        0.0636
     37 H          -7.3481   -1.0239    0.9285 H       1  UNL1        0.0618
     38 H          -8.1947    1.1275    0.0245 H       1  UNL1        0.0618
     39 H          -6.5890    2.7773   -0.9037 H       1  UNL1        0.0618
     40 H          -4.2000    2.2928   -0.9507 H       1  UNL1        0.0636
     41 H          -2.4377   -1.6867    1.0073 H       1  UNL1        0.0479
     42 H          -3.2073   -1.9981   -0.5643 H       1  UNL1        0.0479
     43 H          -1.2172   -1.2178   -1.7755 H       1  UNL1        0.0480
     44 H          -0.8047   -2.5209   -0.6544 H       1  UNL1        0.0480
@<TRIPOS>BOND
     1     1     2    2
     2     2     3    1
     3     3     4   ar
     4     4     5   ar
     5     5     6   ar
     6     6     7   ar
     7     7     8    1
     8     8     9    1
     9     9    10    1
    10    10    11    1
    11     2    12   am
    12    12    13    1
    13    13    14    1
    14    14    15    1
    15    15    16    1
    16    16    17   ar
    17    17    18   ar
    18    18    19   ar
    19    19    20   ar
    20    20    21   ar
    21    15    22    1
    22    22    23    1
    23     7     3   ar
    24    23    12    1
    25    11     6    1
    26    21    16   ar
    27     8    24    1
    28     8    25    1
    29     9    26    1
    30     9    27    1
    31    10    28    1
    32    10    29    1
    33    11    30    1
    34    11    31    1
    35    13    32    1
    36    13    33    1
    37    14    34    1
    38    14    35    1
    39    17    36    1
    40    18    37    1
    41    19    38    1
    42    20    39    1
    43    21    40    1
    44    22    41    1
    45    22    42    1
    46    23    43    1
    47    23    44    1
