@<TRIPOS>MOLECULE
*****
 34 35 0 0 0
SMALL
GASTEIGER

@<TRIPOS>ATOM
      1 O          -4.1548    1.3634    0.6299 O.2     1  UNL1       -0.2921
      2 C          -3.7883    0.2703    0.2025 C.2     1  UNL1        0.1629
      3 C          -4.7735   -0.8238   -0.1734 C.3     1  UNL1        0.0076
      4 C          -6.2178   -0.3944    0.0306 C.3     1  UNL1       -0.0582
      5 C          -2.3253    0.0009    0.0454 C.ar    1  UNL1        0.0180
      6 C          -1.8350   -1.2220   -0.4200 C.ar    1  UNL1       -0.0507
      7 C          -0.4562   -1.4220   -0.5481 C.ar    1  UNL1       -0.0533
      8 C           0.4571   -0.4084   -0.2141 C.ar    1  UNL1       -0.0161
      9 C           1.8508   -0.5955   -0.3376 C.ar    1  UNL1       -0.0330
     10 C           2.7919    0.3981   -0.0041 C.ar    1  UNL1        0.0298
     11 N           4.1702    0.1920   -0.1508 N.pl3   1  UNL1       -0.3360
     12 C           5.1013    1.1929    0.3668 C.3     1  UNL1        0.0004
     13 C           4.6735   -1.1810   -0.1772 C.3     1  UNL1        0.0004
     14 C           2.2591    1.6189    0.4402 C.ar    1  UNL1       -0.0401
     15 C           0.8795    1.8313    0.5735 C.ar    1  UNL1       -0.0523
     16 C          -0.0337    0.8241    0.2521 C.ar    1  UNL1       -0.0171
     17 C          -1.4199    1.0180    0.3788 C.ar    1  UNL1       -0.0435
     18 H          -4.6295   -1.0818   -1.2280 H       1  UNL1        0.0342
     19 H          -4.5774   -1.7041    0.4477 H       1  UNL1        0.0342
     20 H          -6.4577    0.4820   -0.5805 H       1  UNL1        0.0234
     21 H          -6.4072   -0.1358    1.0777 H       1  UNL1        0.0234
     22 H          -6.8988   -1.2038   -0.2501 H       1  UNL1        0.0234
     23 H          -2.4969   -2.0386   -0.6912 H       1  UNL1        0.0625
     24 H          -0.0962   -2.3820   -0.9133 H       1  UNL1        0.0624
     25 H           2.1921   -1.5533   -0.7194 H       1  UNL1        0.0642
     26 H           5.0157    1.2850    1.4551 H       1  UNL1        0.0428
     27 H           6.1384    0.9239    0.1364 H       1  UNL1        0.0428
     28 H           4.9357    2.1695   -0.1010 H       1  UNL1        0.0428
     29 H           5.7683   -1.2039   -0.2205 H       1  UNL1        0.0428
     30 H           4.3692   -1.7303    0.7207 H       1  UNL1        0.0428
     31 H           4.3271   -1.7126   -1.0697 H       1  UNL1        0.0428
     32 H           2.9056    2.4506    0.7029 H       1  UNL1        0.0636
     33 H           0.5314    2.7988    0.9292 H       1  UNL1        0.0624
     34 H          -1.7986    1.9735    0.7399 H       1  UNL1        0.0631
@<TRIPOS>BOND
     1     1     2    2
     2     2     3    1
     3     3     4    1
     4     2     5    1
     5     5     6   ar
     6     6     7   ar
     7     7     8   ar
     8     8     9   ar
     9     9    10   ar
    10    10    11    1
    11    11    12    1
    12    11    13    1
    13    10    14   ar
    14    14    15   ar
    15     8    16   ar
    16    16    17   ar
    17    17     5   ar
    18    16    15   ar
    19     3    18    1
    20     3    19    1
    21     4    20    1
    22     4    21    1
    23     4    22    1
    24     6    23    1
    25     7    24    1
    26     9    25    1
    27    12    26    1
    28    12    27    1
    29    12    28    1
    30    13    29    1
    31    13    30    1
    32    13    31    1
    33    14    32    1
    34    15    33    1
    35    17    34    1
