@<TRIPOS>MOLECULE
*****
 31 32 0 0 0
SMALL
GASTEIGER

@<TRIPOS>ATOM
      1 O           4.0259   -0.1463   -1.5902 O.2     1  UNL1       -0.2507
      2 C           3.9781    0.3858   -0.4942 C.2     1  UNL1        0.3091
      3 C           3.3679   -0.1686    0.7765 C.3     1  UNL1        0.0708
      4 C           2.1856   -1.0573    0.4848 C.ar    1  UNL1       -0.0194
      5 C           2.2871   -2.3935    0.5644 C.ar    1  UNL1        0.0273
      6 C           1.1703   -3.3133    0.2994 C.ar    1  UNL1        0.3375
      7 O           1.3223   -4.5255    0.3977 O.2     1  UNL1       -0.2452
      8 O          -0.0390   -2.7417   -0.0493 O.2     1  UNL1       -0.4221
      9 C          -0.1847   -1.3418   -0.1327 C.ar    1  UNL1        0.1411
     10 C          -1.4603   -0.8778   -0.4844 C.ar    1  UNL1        0.0024
     11 C          -1.7395    0.4923   -0.5867 C.ar    1  UNL1        0.0327
     12 N          -3.0002    0.9757   -0.9520 N.pl3   1  UNL1       -0.3359
     13 C          -3.3361    2.3685   -0.6596 C.3     1  UNL1        0.0004
     14 C          -4.1321    0.0515   -1.0083 C.3     1  UNL1        0.0004
     15 C          -0.6540    1.3520   -0.3405 C.ar    1  UNL1       -0.0399
     16 C           0.6256    0.8820    0.0106 C.ar    1  UNL1       -0.0491
     17 C           0.8800   -0.4839    0.1235 C.ar    1  UNL1        0.0214
     18 O           4.5581    1.5880   -0.2974 O.3     1  UNL1       -0.4804
     19 H           4.1602   -0.7207    1.2967 H       1  UNL1        0.0426
     20 H           3.0718    0.6515    1.4402 H       1  UNL1        0.0426
     21 H           3.2175   -2.8856    0.8257 H       1  UNL1        0.0692
     22 H          -2.2238   -1.6255   -0.6723 H       1  UNL1        0.0673
     23 H          -3.2417    2.5799    0.4113 H       1  UNL1        0.0428
     24 H          -2.7014    3.0565   -1.2280 H       1  UNL1        0.0428
     25 H          -4.3668    2.6004   -0.9509 H       1  UNL1        0.0428
     26 H          -3.9519   -0.7535   -1.7289 H       1  UNL1        0.0428
     27 H          -5.0416    0.5594   -1.3483 H       1  UNL1        0.0428
     28 H          -4.3398   -0.3762   -0.0213 H       1  UNL1        0.0428
     29 H          -0.7696    2.4289   -0.4260 H       1  UNL1        0.0636
     30 H           1.4001    1.6241    0.1820 H       1  UNL1        0.0625
     31 H           4.9320    1.8146   -1.1760 H       1  UNL1        0.2951
@<TRIPOS>BOND
     1     1     2    2
     2     2     3    1
     3     3     4    1
     4     4     5   ar
     5     5     6   ar
     6     6     7    2
     7     6     8   ar
     8     8     9   ar
     9     9    10   ar
    10    10    11   ar
    11    11    12    1
    12    12    13    1
    13    12    14    1
    14    11    15   ar
    15    15    16   ar
    16    16    17   ar
    17     2    18    1
    18    17     4   ar
    19    17     9   ar
    20     3    19    1
    21     3    20    1
    22     5    21    1
    23    10    22    1
    24    13    23    1
    25    13    24    1
    26    13    25    1
    27    14    26    1
    28    14    27    1
    29    14    28    1
    30    15    29    1
    31    16    30    1
    32    18    31    1
