@<TRIPOS>MOLECULE
*****
 25 26 0 0 0
SMALL
GASTEIGER

@<TRIPOS>ATOM
      1 O           0.7804    1.0214    0.8018 O.2     1  UNL1       -0.2751
      2 C           0.8623    0.4277   -0.2705 C.2     1  UNL1        0.2228
      3 C          -0.2632    0.4588   -1.2956 C.3     1  UNL1        0.0535
      4 C          -1.6234    0.2879   -0.6681 C.ar    1  UNL1        0.0148
      5 C          -2.4552    1.4022   -0.5146 C.ar    1  UNL1        0.1284
      6 F          -2.0510    2.6021   -0.9565 F       1  UNL1       -0.2051
      7 C          -3.7106    1.3053    0.0811 C.ar    1  UNL1       -0.0261
      8 C          -4.1609    0.0731    0.5449 C.ar    1  UNL1       -0.0577
      9 C          -3.3492   -1.0529    0.4078 C.ar    1  UNL1       -0.0429
     10 C          -2.0888   -0.9462   -0.1921 C.ar    1  UNL1        0.0473
     11 CL         -1.1404   -2.3843   -0.3305 Cl      1  UNL1       -0.0832
     12 N           1.9500   -0.3046   -0.6926 N.am    1  UNL1       -0.2675
     13 C           3.1053   -0.4987    0.0314 C.ar    1  UNL1        0.1676
     14 C           3.4595   -0.0182    1.3108 C.ar    1  UNL1        0.0192
     15 C           4.7147   -0.5205    1.5295 C.ar    1  UNL1        0.1261
     16 O           5.0985   -1.2538    0.4577 O.2     1  UNL1       -0.3611
     17 N           4.0891   -1.2427   -0.4881 N.ar    1  UNL1       -0.0631
     18 H          -0.1210   -0.3091   -2.0651 H       1  UNL1        0.0408
     19 H          -0.1911    1.4182   -1.8222 H       1  UNL1        0.0408
     20 H          -4.3251    2.1949    0.1818 H       1  UNL1        0.0646
     21 H          -5.1378   -0.0107    1.0146 H       1  UNL1        0.0619
     22 H          -3.7030   -2.0139    0.7748 H       1  UNL1        0.0632
     23 H           1.9468   -0.7810   -1.5840 H       1  UNL1        0.1563
     24 H           2.8867    0.6031    1.9825 H       1  UNL1        0.0684
     25 H           5.4274   -0.4579    2.3379 H       1  UNL1        0.1058
@<TRIPOS>BOND
     1     1     2    2
     2     2     3    1
     3     3     4    1
     4     4     5   ar
     5     5     6    1
     6     5     7   ar
     7     7     8   ar
     8     8     9   ar
     9     9    10   ar
    10    10    11    1
    11     2    12   am
    12    12    13    1
    13    13    14   ar
    14    14    15   ar
    15    15    16   ar
    16    16    17   ar
    17    10     4   ar
    18    17    13   ar
    19     3    18    1
    20     3    19    1
    21     7    20    1
    22     8    21    1
    23     9    22    1
    24    12    23    1
    25    14    24    1
    26    15    25    1
