@<TRIPOS>MOLECULE
*****
 48 55 0 0 0
SMALL
GASTEIGER

@<TRIPOS>ATOM
      1 SI          5.3027   -0.4747    1.7694 Si      1  UNL1        0.0000
      2 C           7.1878   -0.1746    1.5827 C.2     1  UNL1        0.0000
      3 C           7.4748    0.4357    0.4118 C.2     1  UNL1        0.0000
      4 C           6.3398    0.7161   -0.4129 C.ar    1  UNL1        0.0000
      5 C           6.2535    1.3200   -1.6378 C.ar    1  UNL1        0.0000
      6 S           4.6088    1.3991   -2.1636 S.2     1  UNL1        0.0000
      7 C           4.0134    0.6162   -0.7382 C.ar    1  UNL1        0.0000
      8 C           5.0666    0.3244    0.0791 C.ar    1  UNL1        0.0000
      9 C           2.5852    0.3598   -0.5840 C.ar    1  UNL1        0.0000
     10 C           2.1052   -0.9428   -0.5144 C.ar    1  UNL1        0.0000
     11 C           0.7341   -1.1921   -0.3437 C.ar    1  UNL1        0.0000
     12 C          -0.2397   -0.1732   -0.2058 C.ar    1  UNL1        0.0000
     13 C           0.2762    1.1468   -0.3448 C.ar    1  UNL1        0.0000
     14 C           1.6674    1.4048   -0.5080 C.ar    1  UNL1        0.0000
     15 C          -0.7376    2.1365   -0.2897 C.ar    1  UNL1        0.0000
     16 C          -0.4587    3.4865   -0.3354 C.ar    1  UNL1        0.0000
     17 S          -1.8611    4.4427   -0.1478 S.2     1  UNL1        0.0000
     18 C          -2.8498    3.0514   -0.0064 C.ar    1  UNL1        0.0000
     19 C          -2.1613    1.8705   -0.1976 C.ar    1  UNL1        0.0000
     20 C          -2.7691    0.5717   -0.1428 C.ar    1  UNL1        0.0000
     21 C          -4.2415    0.2586   -0.2012 C.ar    1  UNL1        0.0000
     22 C          -5.2587    1.1284   -0.6386 C.ar    1  UNL1        0.0000
     23 N          -6.5997    0.8857   -0.6665 N.ar    1  UNL1        0.0000
     24 C          -7.0061   -0.3297   -0.2659 C.ar    1  UNL1        0.0000
     25 C          -6.1356   -1.3191    0.1308 C.ar    1  UNL1        0.0000
     26 C          -4.7543   -1.0207    0.1359 C.ar    1  UNL1        0.0000
     27 C          -3.7231   -1.9191    0.4647 C.ar    1  UNL1        0.0000
     28 C          -3.9047   -3.2103    0.9038 C.ar    1  UNL1        0.0000
     29 N          -2.6631   -3.7255    1.1714 N.ar    1  UNL1        0.0000
     30 C          -1.7001   -2.7773    0.9104 C.ar    1  UNL1        0.0000
     31 C          -2.3155   -1.6554    0.3951 C.ar    1  UNL1        0.0000
     32 C          -1.6973   -0.4252    0.0035 C.ar    1  UNL1        0.0000
     33 H           4.7600    0.3127    2.9042 H       1  UNL1        0.0000
     34 H           5.0033   -1.9291    1.7963 H       1  UNL1        0.0000
     35 H           7.8747   -0.4785    2.3559 H       1  UNL1        0.0000
     36 H           8.4825    0.6979    0.1107 H       1  UNL1        0.0000
     37 H           7.0425    1.7209   -2.2582 H       1  UNL1        0.0000
     38 H           2.7852   -1.7856   -0.6210 H       1  UNL1        0.0000
     39 H           0.4353   -2.2340   -0.3881 H       1  UNL1        0.0000
     40 H           2.0346    2.4245   -0.5815 H       1  UNL1        0.0000
     41 H           0.4919    3.9894   -0.4361 H       1  UNL1        0.0000
     42 H          -3.8856    3.2217    0.2400 H       1  UNL1        0.0000
     43 H          -5.0222    2.0965   -1.0681 H       1  UNL1        0.0000
     44 H          -8.0783   -0.4974   -0.2916 H       1  UNL1        0.0000
     45 H          -6.5129   -2.2938    0.4129 H       1  UNL1        0.0000
     46 H          -4.7899   -3.8051    1.0815 H       1  UNL1        0.0000
     47 H          -2.4833   -4.6474    1.5488 H       1  UNL1        0.0000
     48 H          -0.6760   -3.0083    1.1602 H       1  UNL1        0.0000
@<TRIPOS>BOND
     1     1     2    1
     2     2     3    2
     3     3     4    1
     4     4     5   ar
     5     5     6   ar
     6     6     7   ar
     7     7     8   ar
     8     7     9    1
     9     9    10   ar
    10    10    11   ar
    11    11    12   ar
    12    12    13   ar
    13    13    14   ar
    14    13    15   ar
    15    15    16   ar
    16    16    17   ar
    17    17    18   ar
    18    18    19   ar
    19    19    20   ar
    20    20    21   ar
    21    21    22   ar
    22    22    23   ar
    23    23    24   ar
    24    24    25   ar
    25    25    26   ar
    26    26    27   ar
    27    27    28   ar
    28    28    29   ar
    29    29    30   ar
    30    30    31   ar
    31    31    32   ar
    32     8     1    1
    33    14     9   ar
    34    19    15   ar
    35    32    20   ar
    36     8     4   ar
    37    32    12   ar
    38    26    21   ar
    39    31    27   ar
    40     1    33    1
    41     1    34    1
    42     2    35    1
    43     3    36    1
    44     5    37    1
    45    10    38    1
    46    11    39    1
    47    14    40    1
    48    16    41    1
    49    18    42    1
    50    22    43    1
    51    24    44    1
    52    25    45    1
    53    28    46    1
    54    29    47    1
    55    30    48    1
