@<TRIPOS>MOLECULE
*****
 37 39 0 0 0
SMALL
GASTEIGER

@<TRIPOS>ATOM
      1 O           2.8972   -1.4353   -2.9753 O.2     1  UNL1       -0.2755
      2 C           2.2116   -1.7230   -1.9973 C.2     1  UNL1        0.2176
      3 C           0.8187   -2.3172   -2.1382 C.3     1  UNL1        0.0491
      4 C          -0.2301   -1.6187   -1.3026 C.ar    1  UNL1       -0.0385
      5 C          -0.4516   -0.2437   -1.4414 C.ar    1  UNL1       -0.0562
      6 C          -1.4040    0.4109   -0.6527 C.ar    1  UNL1       -0.0376
      7 C          -2.1646   -0.3007    0.2855 C.ar    1  UNL1        0.0460
      8 N          -3.1358    0.3678    1.0969 N.ar    1  UNL1       -0.3230
      9 C          -3.9512   -0.2084    2.0565 C.ar    1  UNL1        0.0098
     10 C          -4.7497    0.7598    2.6252 C.ar    1  UNL1       -0.0438
     11 C          -4.4277    1.9804    2.0050 C.ar    1  UNL1       -0.0438
     12 C          -3.4428    1.7180    1.0778 C.ar    1  UNL1        0.0098
     13 C          -1.9529   -1.6815    0.4117 C.ar    1  UNL1       -0.0376
     14 C          -0.9963   -2.3327   -0.3764 C.ar    1  UNL1       -0.0562
     15 N           2.6490   -1.5828   -0.6968 N.am    1  UNL1       -0.3104
     16 C           3.8435   -0.8300   -0.3897 C.3     1  UNL1        0.0430
     17 C           3.4489    0.5990   -0.1810 C.ar    1  UNL1        0.0069
     18 C           3.3853    1.6112   -1.1197 C.ar    1  UNL1       -0.0500
     19 C           2.9465    2.8447   -0.5593 C.ar    1  UNL1       -0.0544
     20 C           2.6877    2.7342    0.7883 C.ar    1  UNL1       -0.0240
     21 S           2.9730    1.1520    1.3702 S.2     1  UNL1       -0.1000
     22 H           0.8857   -3.3801   -1.8774 H       1  UNL1        0.0407
     23 H           0.5181   -2.2610   -3.1912 H       1  UNL1        0.0407
     24 H           0.1256    0.3375   -2.1597 H       1  UNL1        0.0621
     25 H          -1.5185    1.4796   -0.8027 H       1  UNL1        0.0638
     26 H          -3.9146   -1.2645    2.2751 H       1  UNL1        0.0813
     27 H          -5.4840    0.5957    3.4034 H       1  UNL1        0.0633
     28 H          -4.8627    2.9509    2.2064 H       1  UNL1        0.0633
     29 H          -2.9456    2.4053    0.4106 H       1  UNL1        0.0813
     30 H          -2.5134   -2.2904    1.1139 H       1  UNL1        0.0638
     31 H          -0.8575   -3.4054   -0.2544 H       1  UNL1        0.0621
     32 H           1.9521   -1.6271    0.0364 H       1  UNL1        0.1490
     33 H           4.2854   -1.2622    0.5139 H       1  UNL1        0.0517
     34 H           4.5718   -0.9185   -1.2027 H       1  UNL1        0.0517
     35 H           3.6350    1.4644   -2.1651 H       1  UNL1        0.0626
     36 H           2.8247    3.7654   -1.1169 H       1  UNL1        0.0623
     37 H           2.3431    3.5067    1.4623 H       1  UNL1        0.0693
@<TRIPOS>BOND
     1     1     2    2
     2     2     3    1
     3     3     4    1
     4     4     5   ar
     5     5     6   ar
     6     6     7   ar
     7     7     8    1
     8     8     9   ar
     9     9    10   ar
    10    10    11   ar
    11    11    12   ar
    12     7    13   ar
    13    13    14   ar
    14     2    15   am
    15    15    16    1
    16    16    17    1
    17    17    18   ar
    18    18    19   ar
    19    19    20   ar
    20    20    21   ar
    21    14     4   ar
    22    21    17   ar
    23    12     8   ar
    24     3    22    1
    25     3    23    1
    26     5    24    1
    27     6    25    1
    28     9    26    1
    29    10    27    1
    30    11    28    1
    31    12    29    1
    32    13    30    1
    33    14    31    1
    34    15    32    1
    35    16    33    1
    36    16    34    1
    37    18    35    1
    38    19    36    1
    39    20    37    1
