@<TRIPOS>MOLECULE
*****
 37 38 0 0 0
SMALL
GASTEIGER

@<TRIPOS>ATOM
      1 O           0.7199   -2.1723    0.4290 O.2     1  UNL1       -0.2743
      2 C           1.0112   -2.0631   -0.7611 C.2     1  UNL1        0.2295
      3 C           0.0449   -2.3399   -1.8933 C.3     1  UNL1        0.0336
      4 C          -1.4005   -2.2503   -1.4169 C.3     1  UNL1        0.0326
      5 C          -1.8085   -0.8103   -1.1449 C.2     1  UNL1        0.2177
      6 O          -1.1190    0.1318   -1.5192 O.2     1  UNL1       -0.2755
      7 N          -3.0249   -0.7391   -0.4882 N.am    1  UNL1       -0.2855
      8 C          -3.7261    0.4210   -0.0988 C.ar    1  UNL1        0.0334
      9 C          -4.9376    0.2370    0.5816 C.ar    1  UNL1       -0.0405
     10 C          -5.6957    1.3338    1.0005 C.ar    1  UNL1       -0.0600
     11 C          -5.2494    2.6267    0.7428 C.ar    1  UNL1       -0.0616
     12 C          -4.0471    2.8200    0.0674 C.ar    1  UNL1       -0.0600
     13 C          -3.2883    1.7219   -0.3520 C.ar    1  UNL1       -0.0405
     14 N           2.2854   -1.7429   -1.1885 N.am    1  UNL1       -0.2341
     15 N           3.1767   -1.2702   -0.2000 N.am    1  UNL1       -0.2299
     16 C           4.0473   -0.2487   -0.5581 C.2     1  UNL1        0.2668
     17 O           4.1669    0.0683   -1.7442 O.2     1  UNL1       -0.2681
     18 C           4.7547    0.3805    0.5498 C.ar    1  UNL1        0.0753
     19 C           4.8155    0.0320    1.8893 C.ar    1  UNL1       -0.0425
     20 C           5.6270    0.9228    2.6536 C.ar    1  UNL1       -0.0540
     21 C           6.1666    1.9217    1.8773 C.ar    1  UNL1       -0.0236
     22 S           5.7008    1.7819    0.2403 S.2     1  UNL1       -0.0921
     23 H           0.2323   -1.6479   -2.7219 H       1  UNL1        0.0363
     24 H           0.2474   -3.3557   -2.2517 H       1  UNL1        0.0363
     25 H          -2.0629   -2.6358   -2.2008 H       1  UNL1        0.0363
     26 H          -1.5556   -2.8528   -0.5146 H       1  UNL1        0.0363
     27 H          -3.4535   -1.6186   -0.2293 H       1  UNL1        0.1548
     28 H          -5.3096   -0.7609    0.7971 H       1  UNL1        0.0636
     29 H          -6.6330    1.1779    1.5281 H       1  UNL1        0.0618
     30 H          -5.8352    3.4826    1.0673 H       1  UNL1        0.0618
     31 H          -3.6924    3.8273   -0.1364 H       1  UNL1        0.0618
     32 H          -2.3580    1.9208   -0.8744 H       1  UNL1        0.0636
     33 H           2.4264   -1.3340   -2.1145 H       1  UNL1        0.1728
     34 H           2.8381   -1.3582    0.7559 H       1  UNL1        0.1731
     35 H           4.3128   -0.8251    2.3203 H       1  UNL1        0.0630
     36 H           5.8071    0.8325    3.7182 H       1  UNL1        0.0623
     37 H           6.8163    2.7278    2.1901 H       1  UNL1        0.0693
@<TRIPOS>BOND
     1     1     2    2
     2     2     3    1
     3     3     4    1
     4     4     5    1
     5     5     6    2
     6     5     7   am
     7     7     8    1
     8     8     9   ar
     9     9    10   ar
    10    10    11   ar
    11    11    12   ar
    12    12    13   ar
    13     2    14   am
    14    14    15    1
    15    15    16   am
    16    16    17    2
    17    16    18    1
    18    18    19   ar
    19    19    20   ar
    20    20    21   ar
    21    21    22   ar
    22    13     8   ar
    23    22    18   ar
    24     3    23    1
    25     3    24    1
    26     4    25    1
    27     4    26    1
    28     7    27    1
    29     9    28    1
    30    10    29    1
    31    11    30    1
    32    12    31    1
    33    13    32    1
    34    14    33    1
    35    15    34    1
    36    19    35    1
    37    20    36    1
    38    21    37    1
