@<TRIPOS>MOLECULE
*****
 33 35 0 0 0
SMALL
GASTEIGER

@<TRIPOS>ATOM
      1 O          -3.8525   -2.8184   -0.1453 O.2     1  UNL1       -0.2510
      2 C          -2.6551   -2.9704    0.0271 C.2     1  UNL1        0.3050
      3 C          -1.5733   -2.0260   -0.3969 C.3     1  UNL1        0.0488
      4 C          -1.3250   -1.0060    0.7051 C.3     1  UNL1       -0.0165
      5 C          -0.2420   -0.0077    0.3162 C.ar    1  UNL1       -0.0314
      6 C          -0.6027    1.2011   -0.3667 C.ar    1  UNL1       -0.0141
      7 C           0.4151    2.1262   -0.6927 C.ar    1  UNL1       -0.0170
      8 C           0.1034    3.3287   -1.3517 C.ar    1  UNL1       -0.0540
      9 C          -1.2065    3.6368   -1.7077 C.ar    1  UNL1       -0.0612
     10 C          -2.2217    2.7419   -1.4104 C.ar    1  UNL1       -0.0612
     11 C          -1.9239    1.5448   -0.7526 C.ar    1  UNL1       -0.0538
     12 C           1.7454    1.8458   -0.3635 C.ar    1  UNL1       -0.0463
     13 C           2.1160    0.6563    0.2725 C.ar    1  UNL1       -0.0170
     14 C           3.4718    0.4178    0.5598 C.ar    1  UNL1       -0.0540
     15 C           3.8808   -0.7598    1.1792 C.ar    1  UNL1       -0.0612
     16 C           2.9363   -1.7159    1.5161 C.ar    1  UNL1       -0.0612
     17 C           1.5853   -1.4880    1.2382 C.ar    1  UNL1       -0.0538
     18 C           1.1306   -0.2967    0.6166 C.ar    1  UNL1       -0.0141
     19 O          -2.1829   -4.0439    0.6875 O.3     1  UNL1       -0.4806
     20 H          -0.6700   -2.5983   -0.6380 H       1  UNL1        0.0381
     21 H          -1.8886   -1.5469   -1.3310 H       1  UNL1        0.0381
     22 H          -1.0663   -1.5062    1.6458 H       1  UNL1        0.0319
     23 H          -2.2533   -0.4850    0.9672 H       1  UNL1        0.0319
     24 H           0.8889    4.0404   -1.5981 H       1  UNL1        0.0624
     25 H          -1.4294    4.5696   -2.2181 H       1  UNL1        0.0618
     26 H          -3.2480    2.9674   -1.6883 H       1  UNL1        0.0618
     27 H          -2.7581    0.8769   -0.5545 H       1  UNL1        0.0624
     28 H           2.5173    2.5700   -0.6211 H       1  UNL1        0.0630
     29 H           4.2276    1.1553    0.2968 H       1  UNL1        0.0624
     30 H           4.9327   -0.9285    1.3922 H       1  UNL1        0.0618
     31 H           3.2433   -2.6424    1.9943 H       1  UNL1        0.0618
     32 H           0.8905   -2.2766    1.5145 H       1  UNL1        0.0624
     33 H          -2.9858   -4.5621    0.9076 H       1  UNL1        0.2951
@<TRIPOS>BOND
     1     1     2    2
     2     2     3    1
     3     3     4    1
     4     4     5    1
     5     5     6   ar
     6     6     7   ar
     7     7     8   ar
     8     8     9   ar
     9     9    10   ar
    10    10    11   ar
    11     7    12   ar
    12    12    13   ar
    13    13    14   ar
    14    14    15   ar
    15    15    16   ar
    16    16    17   ar
    17    17    18   ar
    18     2    19    1
    19    18     5   ar
    20    11     6   ar
    21    18    13   ar
    22     3    20    1
    23     3    21    1
    24     4    22    1
    25     4    23    1
    26     8    24    1
    27     9    25    1
    28    10    26    1
    29    11    27    1
    30    12    28    1
    31    14    29    1
    32    15    30    1
    33    16    31    1
    34    17    32    1
    35    19    33    1
