@<TRIPOS>MOLECULE
*****
 40 41 0 0 0
SMALL
GASTEIGER

@<TRIPOS>ATOM
      1 O           1.2774    1.3246    0.6959 O.2     1  UNL1       -0.2743
      2 C           0.9627    0.1383    0.6534 C.2     1  UNL1        0.2291
      3 C          -0.4601   -0.3649    0.5021 C.3     1  UNL1        0.0256
      4 C          -1.4756    0.7779    0.4743 C.3     1  UNL1       -0.0419
      5 C          -2.9404    0.2996    0.4726 C.3     1  UNL1       -0.0406
      6 C          -3.8798    1.5111    0.6072 C.3     1  UNL1       -0.0502
      7 C          -5.3500    1.1023    0.5766 C.3     1  UNL1       -0.0528
      8 C          -5.6813    0.2991   -0.6756 C.3     1  UNL1       -0.0530
      9 C          -4.7647   -0.9102   -0.8185 C.3     1  UNL1       -0.0528
     10 C          -3.2899   -0.5128   -0.7852 C.3     1  UNL1       -0.0502
     11 N           1.8844   -0.8902    0.7416 N.am    1  UNL1       -0.2341
     12 N           3.2400   -0.5443    0.6458 N.am    1  UNL1       -0.2291
     13 C           4.0513   -1.3208   -0.1596 C.2     1  UNL1        0.2799
     14 O           3.7095   -2.4104   -0.6121 O.2     1  UNL1       -0.2669
     15 C           5.3796   -0.7247   -0.4559 C.ar    1  UNL1        0.1448
     16 C           6.2971   -1.4215   -1.2272 C.ar    1  UNL1        0.0581
     17 N           7.5199   -0.9140   -1.5291 N.ar    1  UNL1       -0.2595
     18 C           7.7769    0.3167   -1.0270 C.ar    1  UNL1        0.0457
     19 C           6.8579    1.0135   -0.2567 C.ar    1  UNL1        0.0465
     20 N           5.6373    0.5156    0.0505 N.ar    1  UNL1       -0.2473
     21 H          -0.6765   -1.0367    1.3408 H       1  UNL1        0.0359
     22 H          -0.5089   -0.9424   -0.4272 H       1  UNL1        0.0359
     23 H          -1.3137    1.4164    1.3528 H       1  UNL1        0.0272
     24 H          -1.2882    1.4110   -0.4028 H       1  UNL1        0.0272
     25 H          -3.0920   -0.3440    1.3500 H       1  UNL1        0.0301
     26 H          -3.6751    2.0395    1.5461 H       1  UNL1        0.0268
     27 H          -3.6872    2.2230   -0.2059 H       1  UNL1        0.0268
     28 H          -5.9818    1.9967    0.6185 H       1  UNL1        0.0265
     29 H          -5.5817    0.5052    1.4671 H       1  UNL1        0.0265
     30 H          -6.7254   -0.0312   -0.6372 H       1  UNL1        0.0265
     31 H          -5.5808    0.9409   -1.5596 H       1  UNL1        0.0265
     32 H          -4.9842   -1.4293   -1.7583 H       1  UNL1        0.0265
     33 H          -4.9681   -1.6200   -0.0072 H       1  UNL1        0.0265
     34 H          -2.6865   -1.4259   -0.8309 H       1  UNL1        0.0268
     35 H          -3.0529    0.0724   -1.6828 H       1  UNL1        0.0268
     36 H           1.6519   -1.8233    0.4029 H       1  UNL1        0.1728
     37 H           3.4848    0.4372    0.8036 H       1  UNL1        0.1732
     38 H           6.0803   -2.4065   -1.6270 H       1  UNL1        0.0853
     39 H           8.7506    0.7324   -1.2627 H       1  UNL1        0.0845
     40 H           7.0832    1.9995    0.1356 H       1  UNL1        0.0845
@<TRIPOS>BOND
     1     1     2    2
     2     2     3    1
     3     3     4    1
     4     4     5    1
     5     5     6    1
     6     6     7    1
     7     7     8    1
     8     8     9    1
     9     9    10    1
    10     2    11   am
    11    11    12    1
    12    12    13   am
    13    13    14    2
    14    13    15    1
    15    15    16   ar
    16    16    17   ar
    17    17    18   ar
    18    18    19   ar
    19    19    20   ar
    20    10     5    1
    21    20    15   ar
    22     3    21    1
    23     3    22    1
    24     4    23    1
    25     4    24    1
    26     5    25    1
    27     6    26    1
    28     6    27    1
    29     7    28    1
    30     7    29    1
    31     8    30    1
    32     8    31    1
    33     9    32    1
    34     9    33    1
    35    10    34    1
    36    10    35    1
    37    11    36    1
    38    12    37    1
    39    16    38    1
    40    18    39    1
    41    19    40    1
