@<TRIPOS>MOLECULE
*****
 37 39 0 0 0
SMALL
GASTEIGER

@<TRIPOS>ATOM
      1 O          -2.3291   -0.6323    3.7452 O.2     1  UNL1       -0.2758
      2 C          -1.7286   -0.7103    2.6782 C.2     1  UNL1        0.2138
      3 C          -0.5135   -1.5970    2.5103 C.3     1  UNL1        0.0308
      4 C           0.7730   -0.7825    2.5683 C.3     1  UNL1        0.0138
      5 C           1.3090   -0.5129    1.1714 C.ar    1  UNL1        0.1119
      6 N           0.5807    0.2241    0.3923 N.ar    1  UNL1       -0.1955
      7 C           1.0449    0.5137   -0.8758 C.ar    1  UNL1        0.2809
      8 O           0.4103    1.2278   -1.6451 O.2     1  UNL1       -0.2651
      9 C           2.3440   -0.0413   -1.3316 C.ar    1  UNL1        0.0645
     10 C           2.8399    0.2139   -2.6146 C.ar    1  UNL1       -0.0474
     11 C           4.0627   -0.3353   -2.9987 C.ar    1  UNL1       -0.0609
     12 C           4.7816   -1.1297   -2.1037 C.ar    1  UNL1       -0.0598
     13 C           4.2821   -1.3778   -0.8212 C.ar    1  UNL1       -0.0376
     14 C           3.0596   -0.8295   -0.4262 C.ar    1  UNL1        0.0530
     15 N           2.5179   -1.0675    0.8365 N.ar    1  UNL1       -0.3428
     16 N          -2.0752   -0.0093    1.5513 N.am    1  UNL1       -0.3082
     17 C          -3.1376    0.9694    1.5950 C.3     1  UNL1        0.0697
     18 C          -3.5415    1.3176    0.2128 C.ar    1  UNL1        0.1218
     19 C          -2.8948    1.9297   -0.8419 C.ar    1  UNL1       -0.0192
     20 C          -3.8227    1.9731   -1.9100 C.ar    1  UNL1       -0.0236
     21 C          -4.9746    1.3902   -1.4408 C.ar    1  UNL1        0.0921
     22 O          -4.8160    0.9922   -0.1535 O.2     1  UNL1       -0.4662
     23 H          -0.5288   -2.3188    3.3357 H       1  UNL1        0.0362
     24 H          -0.6083   -2.1733    1.5829 H       1  UNL1        0.0362
     25 H           0.6310    0.1786    3.0769 H       1  UNL1        0.0348
     26 H           1.5301   -1.3432    3.1291 H       1  UNL1        0.0348
     27 H           2.2761    0.8317   -3.3097 H       1  UNL1        0.0626
     28 H           4.4549   -0.1457   -3.9956 H       1  UNL1        0.0618
     29 H           5.7339   -1.5602   -2.4088 H       1  UNL1        0.0618
     30 H           4.8580   -2.0014   -0.1421 H       1  UNL1        0.0638
     31 H           3.0616   -1.5939    1.5071 H       1  UNL1        0.1670
     32 H          -1.3540    0.1218    0.8431 H       1  UNL1        0.1491
     33 H          -3.9804    0.5674    2.1683 H       1  UNL1        0.0542
     34 H          -2.7612    1.8528    2.1213 H       1  UNL1        0.0542
     35 H          -1.8746    2.2904   -0.8414 H       1  UNL1        0.0652
     36 H          -3.6655    2.3758   -2.8989 H       1  UNL1        0.0649
     37 H          -5.9450    1.1917   -1.8729 H       1  UNL1        0.1029
@<TRIPOS>BOND
     1     1     2    2
     2     2     3    1
     3     3     4    1
     4     4     5    1
     5     5     6   ar
     6     6     7   ar
     7     7     8    2
     8     7     9   ar
     9     9    10   ar
    10    10    11   ar
    11    11    12   ar
    12    12    13   ar
    13    13    14   ar
    14    14    15   ar
    15     2    16   am
    16    16    17    1
    17    17    18    1
    18    18    19   ar
    19    19    20   ar
    20    20    21   ar
    21    21    22   ar
    22    15     5   ar
    23    22    18   ar
    24    14     9   ar
    25     3    23    1
    26     3    24    1
    27     4    25    1
    28     4    26    1
    29    10    27    1
    30    11    28    1
    31    12    29    1
    32    13    30    1
    33    15    31    1
    34    16    32    1
    35    17    33    1
    36    17    34    1
    37    19    35    1
    38    20    36    1
    39    21    37    1
