@<TRIPOS>MOLECULE
*****
 37 39 0 0 0
SMALL
GASTEIGER

@<TRIPOS>ATOM
      1 O          -2.1277    1.1149   -1.9424 O.2     1  UNL1       -0.2754
      2 C          -2.2944    0.1055   -1.2710 C.2     1  UNL1        0.2186
      3 C          -1.2879   -1.0349   -1.2374 C.3     1  UNL1        0.0251
      4 C           0.0045   -0.6984   -1.9827 C.3     1  UNL1       -0.0353
      5 C           0.9436   -1.8931   -2.1627 C.3     1  UNL1        0.0015
      6 S           1.4915   -2.6685   -0.6072 S.3     1  UNL1       -0.0879
      7 C           2.6916   -1.5514   -0.0773 C.ar    1  UNL1        0.1673
      8 N           3.0600   -0.4352   -0.6534 N.ar    1  UNL1       -0.2220
      9 C           4.0363    0.0768    0.1679 C.ar    1  UNL1        0.0900
     10 C           4.7818    1.2579    0.0459 C.ar    1  UNL1       -0.0342
     11 C           5.7313    1.5575    1.0313 C.ar    1  UNL1       -0.0596
     12 C           5.9345    0.6992    2.1154 C.ar    1  UNL1       -0.0597
     13 C           5.2004   -0.4846    2.2556 C.ar    1  UNL1       -0.0362
     14 C           4.2607   -0.7582    1.2601 C.ar    1  UNL1        0.0668
     15 N           3.3833   -1.7952    1.0720 N.ar    1  UNL1       -0.3329
     16 N          -3.3996   -0.1774   -0.4819 N.am    1  UNL1       -0.2652
     17 C          -4.4800    0.6209   -0.2636 C.2     1  UNL1        0.1556
     18 N          -4.7171    1.7824   -0.7568 N.2     1  UNL1       -0.2624
     19 C          -5.9781    2.2991   -0.1897 C.3     1  UNL1        0.0516
     20 C          -6.8573    1.1412    0.2600 C.3     1  UNL1        0.0205
     21 S          -5.6546   -0.0915    0.7999 S.3     1  UNL1       -0.0887
     22 H          -1.7639   -1.9116   -1.6927 H       1  UNL1        0.0359
     23 H          -1.0722   -1.2639   -0.1878 H       1  UNL1        0.0359
     24 H           0.5186    0.1244   -1.4716 H       1  UNL1        0.0278
     25 H          -0.2433   -0.3199   -2.9829 H       1  UNL1        0.0278
     26 H           1.8178   -1.5990   -2.7539 H       1  UNL1        0.0381
     27 H           0.4266   -2.6683   -2.7393 H       1  UNL1        0.0381
     28 H           4.6187    1.9201   -0.7972 H       1  UNL1        0.0639
     29 H           6.3158    2.4710    0.9488 H       1  UNL1        0.0618
     30 H           6.6790    0.9568    2.8664 H       1  UNL1        0.0618
     31 H           5.3594   -1.1491    3.0977 H       1  UNL1        0.0639
     32 H           3.2606   -2.5999    1.6668 H       1  UNL1        0.1679
     33 H          -3.4195   -1.0524    0.0186 H       1  UNL1        0.1567
     34 H          -5.7440    2.9647    0.6506 H       1  UNL1        0.0517
     35 H          -6.5025    2.8986   -0.9415 H       1  UNL1        0.0517
     36 H          -7.4270    0.7351   -0.5817 H       1  UNL1        0.0399
     37 H          -7.5469    1.4263    1.0584 H       1  UNL1        0.0399
@<TRIPOS>BOND
     1     1     2    2
     2     2     3    1
     3     3     4    1
     4     4     5    1
     5     5     6    1
     6     6     7    1
     7     7     8   ar
     8     8     9   ar
     9     9    10   ar
    10    10    11   ar
    11    11    12   ar
    12    12    13   ar
    13    13    14   ar
    14    14    15   ar
    15     2    16   am
    16    16    17    1
    17    17    18    2
    18    18    19    1
    19    19    20    1
    20    20    21    1
    21    15     7   ar
    22    21    17    1
    23    14     9   ar
    24     3    22    1
    25     3    23    1
    26     4    24    1
    27     4    25    1
    28     5    26    1
    29     5    27    1
    30    10    28    1
    31    11    29    1
    32    12    30    1
    33    13    31    1
    34    15    32    1
    35    16    33    1
    36    19    34    1
    37    19    35    1
    38    20    36    1
    39    20    37    1
