@<TRIPOS>MOLECULE
*****
 32 34 0 0 0
SMALL
GASTEIGER

@<TRIPOS>ATOM
      1 O           2.9623   -1.1288   -1.0331 O.2     1  UNL1       -0.2741
      2 C           2.5801   -0.2881   -0.2285 C.2     1  UNL1        0.2326
      3 C           1.1228    0.0383    0.0046 C.3     1  UNL1        0.0418
      4 C           0.2190   -0.8253   -0.8674 C.3     1  UNL1        0.0313
      5 N          -1.1826   -0.5254   -0.6367 N.am    1  UNL1       -0.2336
      6 C          -1.8762    0.4490   -1.3013 C.2     1  UNL1        0.2538
      7 O          -1.4874    1.2116   -2.1645 O.2     1  UNL1       -0.2695
      8 C          -3.2249    0.4559   -0.7372 C.ar    1  UNL1        0.0494
      9 C          -4.3286    1.2189   -1.0637 C.ar    1  UNL1       -0.0489
     10 C          -5.4947    1.0036   -0.3220 C.ar    1  UNL1       -0.0610
     11 C          -5.5270    0.0482    0.7157 C.ar    1  UNL1       -0.0610
     12 C          -4.3937   -0.7089    1.0301 C.ar    1  UNL1       -0.0489
     13 C          -3.2566   -0.4811    0.2805 C.ar    1  UNL1        0.0494
     14 C          -1.9280   -1.0848    0.3652 C.2     1  UNL1        0.2538
     15 O          -1.5900   -1.8916    1.2097 O.2     1  UNL1       -0.2695
     16 N           3.4232    0.4674    0.5527 N.am    1  UNL1       -0.2205
     17 N           4.7421    0.1891    0.5373 N.ar    1  UNL1       -0.2339
     18 C           5.3824   -0.6830    1.3518 C.ar    1  UNL1        0.1375
     19 N           6.6799   -0.5356    1.1852 N.ar    1  UNL1       -0.1365
     20 N           6.8722    0.4561    0.2371 N.ar    1  UNL1       -0.1365
     21 C           5.6857    0.8813   -0.1432 C.ar    1  UNL1        0.1375
     22 H           0.8935   -0.1230    1.0646 H       1  UNL1        0.0374
     23 H           0.9616    1.1000   -0.2169 H       1  UNL1        0.0374
     24 H           0.3849   -1.8869   -0.6493 H       1  UNL1        0.0474
     25 H           0.4410   -0.6569   -1.9277 H       1  UNL1        0.0474
     26 H          -4.2892    1.9528   -1.8622 H       1  UNL1        0.0625
     27 H          -6.3905    1.5808   -0.5461 H       1  UNL1        0.0618
     28 H          -6.4473   -0.0994    1.2788 H       1  UNL1        0.0618
     29 H          -4.4041   -1.4446    1.8278 H       1  UNL1        0.0625
     30 H           3.0984    1.0257    1.3302 H       1  UNL1        0.1757
     31 H           4.8932   -1.3713    2.0241 H       1  UNL1        0.1064
     32 H           5.4783    1.6559   -0.8657 H       1  UNL1        0.1064
@<TRIPOS>BOND
     1     1     2    2
     2     2     3    1
     3     3     4    1
     4     4     5    1
     5     5     6   am
     6     6     7    2
     7     6     8    1
     8     8     9   ar
     9     9    10   ar
    10    10    11   ar
    11    11    12   ar
    12    12    13   ar
    13    13    14    1
    14    14    15    2
    15     2    16   am
    16    16    17    1
    17    17    18   ar
    18    18    19   ar
    19    19    20   ar
    20    20    21   ar
    21    14     5   am
    22    21    17   ar
    23    13     8   ar
    24     3    22    1
    25     3    23    1
    26     4    24    1
    27     4    25    1
    28     9    26    1
    29    10    27    1
    30    11    28    1
    31    12    29    1
    32    16    30    1
    33    18    31    1
    34    21    32    1
