@<TRIPOS>MOLECULE
*****
 37 38 0 0 0
SMALL
GASTEIGER

@<TRIPOS>ATOM
      1 O          -1.7440    1.0341    0.8946 O.2     1  UNL1       -0.2754
      2 C          -1.4375    0.1426    0.1117 C.2     1  UNL1        0.2184
      3 C           0.0092   -0.1880   -0.2155 C.3     1  UNL1        0.0370
      4 C           0.9781    0.6040    0.6642 C.3     1  UNL1        0.0072
      5 N           2.3836    0.2251    0.4276 N.3     1  UNL1       -0.3019
      6 C           2.9176    0.7511   -0.8306 C.3     1  UNL1       -0.0011
      7 C           4.2736    0.1026   -1.1391 C.3     1  UNL1       -0.0402
      8 C           5.1279   -0.1362    0.1074 C.3     1  UNL1       -0.0507
      9 C           4.7121    0.7948    1.2354 C.3     1  UNL1       -0.0402
     10 C           3.2213    0.6429    1.5699 C.3     1  UNL1       -0.0011
     11 N          -2.3121   -0.6683   -0.5966 N.am    1  UNL1       -0.2855
     12 C          -3.7214   -0.6504   -0.5637 C.ar    1  UNL1        0.0334
     13 C          -4.3904   -1.5801   -1.3723 C.ar    1  UNL1       -0.0394
     14 C          -5.7877   -1.6298   -1.3994 C.ar    1  UNL1       -0.0460
     15 C          -6.5237   -0.7468   -0.6152 C.ar    1  UNL1        0.0180
     16 BR         -8.4119   -0.8092   -0.6478 Br      1  UNL1       -0.0503
     17 C          -5.8739    0.1817    0.1926 C.ar    1  UNL1       -0.0460
     18 C          -4.4750    0.2286    0.2173 C.ar    1  UNL1       -0.0394
     19 H           0.1646    0.0364   -1.2761 H       1  UNL1        0.0371
     20 H           0.1630   -1.2632   -0.0623 H       1  UNL1        0.0371
     21 H           0.8375    1.6839    0.5247 H       1  UNL1        0.0431
     22 H           0.7210    0.3881    1.7104 H       1  UNL1        0.0431
     23 H           2.2543    0.5377   -1.6753 H       1  UNL1        0.0426
     24 H           3.0204    1.8433   -0.7823 H       1  UNL1        0.0426
     25 H           4.1245   -0.8561   -1.6513 H       1  UNL1        0.0278
     26 H           4.8176    0.7479   -1.8395 H       1  UNL1        0.0278
     27 H           6.1887   -0.0037   -0.1327 H       1  UNL1        0.0266
     28 H           5.0080   -1.1763    0.4361 H       1  UNL1        0.0266
     29 H           5.3145    0.5996    2.1297 H       1  UNL1        0.0278
     30 H           4.9150    1.8309    0.9355 H       1  UNL1        0.0278
     31 H           2.8771    1.5979    1.9889 H       1  UNL1        0.0426
     32 H           3.1097   -0.1096    2.3601 H       1  UNL1        0.0426
     33 H          -1.8917   -1.3602   -1.2050 H       1  UNL1        0.1548
     34 H          -3.8363   -2.2797   -1.9928 H       1  UNL1        0.0636
     35 H          -6.2874   -2.3580   -2.0326 H       1  UNL1        0.0629
     36 H          -6.4396    0.8756    0.8091 H       1  UNL1        0.0629
     37 H          -4.0066    0.9671    0.8607 H       1  UNL1        0.0636
@<TRIPOS>BOND
     1     1     2    2
     2     2     3    1
     3     3     4    1
     4     4     5    1
     5     5     6    1
     6     6     7    1
     7     7     8    1
     8     8     9    1
     9     9    10    1
    10     2    11   am
    11    11    12    1
    12    12    13   ar
    13    13    14   ar
    14    14    15   ar
    15    15    16    1
    16    15    17   ar
    17    17    18   ar
    18    10     5    1
    19    18    12   ar
    20     3    19    1
    21     3    20    1
    22     4    21    1
    23     4    22    1
    24     6    23    1
    25     6    24    1
    26     7    25    1
    27     7    26    1
    28     8    27    1
    29     8    28    1
    30     9    29    1
    31     9    30    1
    32    10    31    1
    33    10    32    1
    34    11    33    1
    35    13    34    1
    36    14    35    1
    37    17    36    1
    38    18    37    1
