@<TRIPOS>MOLECULE
*****
 34 35 0 0 0
SMALL
GASTEIGER

@<TRIPOS>ATOM
      1 O           1.0697    0.9250   -2.0277 O.2     1  UNL1       -0.2920
      2 C           1.1022    0.4926   -0.8770 C.2     1  UNL1        0.1649
      3 C          -0.1686    0.2855   -0.0873 C.3     1  UNL1        0.0259
      4 C          -0.8779   -0.9648   -0.5878 C.3     1  UNL1        0.0161
      5 N          -2.0401   -1.2892    0.2338 N.pl3   1  UNL1       -0.3434
      6 C          -3.2112   -0.5324    0.1857 C.ar    1  UNL1        0.0271
      7 C          -4.1643   -0.7115    1.2001 C.ar    1  UNL1       -0.0409
      8 C          -5.3844   -0.0283    1.1867 C.ar    1  UNL1       -0.0600
      9 C          -5.6861    0.8327    0.1377 C.ar    1  UNL1       -0.0616
     10 C          -4.7733    0.9956   -0.8993 C.ar    1  UNL1       -0.0600
     11 C          -3.5543    0.3075   -0.8798 C.ar    1  UNL1       -0.0409
     12 C           2.4238    0.1627   -0.2673 C.ar    1  UNL1        0.0238
     13 C           2.5502   -0.7113    0.8211 C.ar    1  UNL1       -0.0508
     14 C           3.8112   -1.0005    1.3521 C.ar    1  UNL1       -0.0547
     15 C           4.9551   -0.4248    0.7989 C.ar    1  UNL1        0.0156
     16 C           4.8315    0.4416   -0.2949 C.ar    1  UNL1        0.2738
     17 N           6.0347    1.0465   -0.8802 N.pl3   1  UNL1        0.0796
     18 O           7.1335    0.6824   -0.4378 O.2     1  UNL1        0.0414
     19 O           5.8805    1.8868   -1.7766 O.co2   1  UNL1       -0.5760
     20 C           3.5722    0.7359   -0.8332 C.ar    1  UNL1        0.0260
     21 H          -0.7888    1.1791   -0.2260 H       1  UNL1        0.0360
     22 H           0.0308    0.2367    0.9875 H       1  UNL1        0.0360
     23 H          -0.1908   -1.8181   -0.5296 H       1  UNL1        0.0465
     24 H          -1.1431   -0.8837   -1.6483 H       1  UNL1        0.0465
     25 H          -1.8123   -1.5972    1.1747 H       1  UNL1        0.1461
     26 H          -3.9639   -1.3962    2.0204 H       1  UNL1        0.0636
     27 H          -6.0993   -0.1792    1.9908 H       1  UNL1        0.0618
     28 H          -6.6343    1.3628    0.1195 H       1  UNL1        0.0618
     29 H          -5.0093    1.6506   -1.7340 H       1  UNL1        0.0618
     30 H          -2.8848    0.4479   -1.7228 H       1  UNL1        0.0636
     31 H           1.6862   -1.1969    1.2667 H       1  UNL1        0.0625
     32 H           3.9027   -1.6816    2.1965 H       1  UNL1        0.0620
     33 H           5.9284   -0.6621    1.2253 H       1  UNL1        0.0685
     34 H           3.4743    1.4059   -1.6873 H       1  UNL1        0.0692
@<TRIPOS>UNITY_ATOM_ATTR
17 1
charge 1
19 1
charge -1
@<TRIPOS>BOND
     1     1     2    2
     2     2     3    1
     3     3     4    1
     4     4     5    1
     5     5     6    1
     6     6     7   ar
     7     7     8   ar
     8     8     9   ar
     9     9    10   ar
    10    10    11   ar
    11     2    12    1
    12    12    13   ar
    13    13    14   ar
    14    14    15   ar
    15    15    16   ar
    16    16    17    1
    17    17    18    2
    18    17    19    1
    19    16    20   ar
    20    11     6   ar
    21    20    12   ar
    22     3    21    1
    23     3    22    1
    24     4    23    1
    25     4    24    1
    26     5    25    1
    27     7    26    1
    28     8    27    1
    29     9    28    1
    30    10    29    1
    31    11    30    1
    32    13    31    1
    33    14    32    1
    34    15    33    1
    35    20    34    1
