@<TRIPOS>MOLECULE
*****
 49 50 0 0 0
SMALL
GASTEIGER

@<TRIPOS>ATOM
      1 O          -2.5859    0.6052   -2.4673 O.2     1  UNL1       -0.2758
      2 C          -2.7293    1.1528   -1.3804 C.2     1  UNL1        0.2141
      3 C          -1.6120    1.3155   -0.3705 C.3     1  UNL1        0.0329
      4 C          -0.2949    0.7869   -0.9214 C.3     1  UNL1        0.0019
      5 S           1.0813    1.0336    0.2554 S.3     1  UNL1       -0.1598
      6 C           0.6491   -0.2335    1.5016 C.3     1  UNL1        0.0019
      7 C           1.8224   -0.4810    2.4421 C.3     1  UNL1        0.0329
      8 C           2.8882   -1.3471    1.8014 C.2     1  UNL1        0.2141
      9 O           2.6180   -2.2997    1.0766 O.2     1  UNL1       -0.2758
     10 N           4.1713   -1.0086    2.1686 N.am    1  UNL1       -0.3112
     11 C           5.3213   -1.6383    1.5573 C.3     1  UNL1        0.0368
     12 C           5.9374   -0.7320    0.5224 C.ar    1  UNL1       -0.0303
     13 C           5.3070   -0.5449   -0.7167 C.ar    1  UNL1       -0.0571
     14 C           5.8599    0.3089   -1.6718 C.ar    1  UNL1       -0.0615
     15 C           7.0472    0.9849   -1.3986 C.ar    1  UNL1       -0.0617
     16 C           7.6813    0.8100   -0.1697 C.ar    1  UNL1       -0.0615
     17 C           7.1286   -0.0421    0.7884 C.ar    1  UNL1       -0.0571
     18 N          -3.9238    1.6821   -0.9432 N.am    1  UNL1       -0.3112
     19 C          -5.1500    1.5137   -1.6906 C.3     1  UNL1        0.0368
     20 C          -5.9838    0.4078   -1.0974 C.ar    1  UNL1       -0.0303
     21 C          -5.6993   -0.9311   -1.4034 C.ar    1  UNL1       -0.0571
     22 C          -6.4515   -1.9622   -0.8395 C.ar    1  UNL1       -0.0615
     23 C          -7.4917   -1.6661    0.0393 C.ar    1  UNL1       -0.0617
     24 C          -7.7790   -0.3397    0.3570 C.ar    1  UNL1       -0.0615
     25 C          -7.0271    0.6936   -0.2054 C.ar    1  UNL1       -0.0571
     26 H          -1.5255    2.3812   -0.1267 H       1  UNL1        0.0366
     27 H          -1.9035    0.7717    0.5350 H       1  UNL1        0.0366
     28 H          -0.3638   -0.2754   -1.1798 H       1  UNL1        0.0381
     29 H          -0.0338    1.3214   -1.8416 H       1  UNL1        0.0381
     30 H          -0.1999    0.1418    2.0812 H       1  UNL1        0.0381
     31 H           0.3416   -1.1547    0.9972 H       1  UNL1        0.0381
     32 H           2.2426    0.4617    2.8107 H       1  UNL1        0.0366
     33 H           1.4669   -1.0352    3.3197 H       1  UNL1        0.0366
     34 H           4.3262   -0.1037    2.5915 H       1  UNL1        0.1490
     35 H           6.0367   -1.8437    2.3612 H       1  UNL1        0.0512
     36 H           5.0542   -2.5997    1.1049 H       1  UNL1        0.0512
     37 H           4.3749   -1.0631   -0.9390 H       1  UNL1        0.0621
     38 H           5.3602    0.4472   -2.6271 H       1  UNL1        0.0618
     39 H           7.4766    1.6497   -2.1434 H       1  UNL1        0.0618
     40 H           8.6066    1.3392    0.0425 H       1  UNL1        0.0618
     41 H           7.6356   -0.1640    1.7427 H       1  UNL1        0.0621
     42 H          -4.0085    1.9607    0.0247 H       1  UNL1        0.1490
     43 H          -4.9414    1.3088   -2.7466 H       1  UNL1        0.0512
     44 H          -5.6902    2.4658   -1.6453 H       1  UNL1        0.0512
     45 H          -4.8843   -1.1735   -2.0845 H       1  UNL1        0.0621
     46 H          -6.2239   -2.9960   -1.0864 H       1  UNL1        0.0618
     47 H          -8.0778   -2.4700    0.4768 H       1  UNL1        0.0618
     48 H          -8.5901   -0.1106    1.0433 H       1  UNL1        0.0618
     49 H          -7.2640    1.7226    0.0547 H       1  UNL1        0.0621
@<TRIPOS>BOND
     1     1     2    2
     2     2     3    1
     3     3     4    1
     4     4     5    1
     5     5     6    1
     6     6     7    1
     7     7     8    1
     8     8     9    2
     9     8    10   am
    10    10    11    1
    11    11    12    1
    12    12    13   ar
    13    13    14   ar
    14    14    15   ar
    15    15    16   ar
    16    16    17   ar
    17     2    18   am
    18    18    19    1
    19    19    20    1
    20    20    21   ar
    21    21    22   ar
    22    22    23   ar
    23    23    24   ar
    24    24    25   ar
    25    17    12   ar
    26    25    20   ar
    27     3    26    1
    28     3    27    1
    29     4    28    1
    30     4    29    1
    31     6    30    1
    32     6    31    1
    33     7    32    1
    34     7    33    1
    35    10    34    1
    36    11    35    1
    37    11    36    1
    38    13    37    1
    39    14    38    1
    40    15    39    1
    41    16    40    1
    42    17    41    1
    43    18    42    1
    44    19    43    1
    45    19    44    1
    46    21    45    1
    47    22    46    1
    48    23    47    1
    49    24    48    1
    50    25    49    1
