@<TRIPOS>MOLECULE
*****
 45 52 0 0 0
SMALL
GASTEIGER

@<TRIPOS>ATOM
      1 SI         -5.0088    2.2312   -0.0342 Si      1  UNL1        0.0000
      2 C          -6.9051    2.3017    0.2435 C.2     1  UNL1        0.0000
      3 C          -7.4084    1.0770    0.5119 C.2     1  UNL1        0.0000
      4 C          -6.4428    0.0213    0.5291 C.ar    1  UNL1        0.0000
      5 C          -6.5933   -1.3199    0.7532 C.ar    1  UNL1        0.0000
      6 S          -5.0718   -2.1305    0.6415 S.2     1  UNL1        0.0000
      7 C          -4.2068   -0.6700    0.2906 C.ar    1  UNL1        0.0000
      8 C          -5.0899    0.3713    0.2738 C.ar    1  UNL1        0.0000
      9 C          -2.7607   -0.7061    0.0872 C.ar    1  UNL1        0.0000
     10 C          -2.1932   -1.4742   -0.9211 C.ar    1  UNL1        0.0000
     11 C          -0.8061   -1.4778   -1.1034 C.ar    1  UNL1        0.0000
     12 C           0.0725   -0.7213   -0.2837 C.ar    1  UNL1        0.0000
     13 C          -0.5336    0.0694    0.7101 C.ar    1  UNL1        0.0000
     14 C          -1.9110    0.0598    0.8868 C.ar    1  UNL1        0.0000
     15 N           0.1584    0.8659    1.5186 N.ar    1  UNL1        0.0000
     16 C           1.5053    0.9333    1.3767 C.ar    1  UNL1        0.0000
     17 C           2.2984    0.2274    0.4685 C.ar    1  UNL1        0.0000
     18 C           1.5313   -0.6592   -0.3732 C.ar    1  UNL1        0.0000
     19 C           2.4303   -1.3854   -1.2168 C.ar    1  UNL1        0.0000
     20 C           2.1490   -2.3962   -2.1071 C.ar    1  UNL1        0.0000
     21 O           3.2851   -2.8366   -2.7190 O.2     1  UNL1        0.0000
     22 C           4.3201   -2.1242   -2.2053 C.ar    1  UNL1        0.0000
     23 C           3.8548   -1.2347   -1.2679 C.ar    1  UNL1        0.0000
     24 C           4.6379   -0.3564   -0.5016 C.ar    1  UNL1        0.0000
     25 C           6.0645   -0.2589   -0.6236 C.ar    1  UNL1        0.0000
     26 C           6.8289    0.6104    0.1516 C.ar    1  UNL1        0.0000
     27 C           6.1082    1.3950    1.0715 C.ar    1  UNL1        0.0000
     28 N           6.6714    2.2875    1.9000 N.ar    1  UNL1        0.0000
     29 S           5.4436    2.9593    2.7785 S.2     1  UNL1        0.0000
     30 N           4.1473    2.1520    2.1490 N.ar    1  UNL1        0.0000
     31 C           4.5964    1.2990    1.2097 C.ar    1  UNL1        0.0000
     32 C           3.7908    0.3907    0.4028 C.ar    1  UNL1        0.0000
     33 H          -4.6737    2.6036   -1.4315 H       1  UNL1        0.0000
     34 H          -4.2994    2.9913    1.0244 H       1  UNL1        0.0000
     35 H          -7.4379    3.2365    0.1794 H       1  UNL1        0.0000
     36 H          -8.4603    0.8966    0.7008 H       1  UNL1        0.0000
     37 H          -7.4923   -1.8781    0.9733 H       1  UNL1        0.0000
     38 H          -2.8199   -2.0673   -1.5843 H       1  UNL1        0.0000
     39 H          -0.4421   -2.0721   -1.9285 H       1  UNL1        0.0000
     40 H          -2.3277    0.6710    1.6858 H       1  UNL1        0.0000
     41 H           1.9298    1.6289    2.0924 H       1  UNL1        0.0000
     42 H           1.2700   -2.9303   -2.4269 H       1  UNL1        0.0000
     43 H           5.2920   -2.3838   -2.6005 H       1  UNL1        0.0000
     44 H           6.5934   -0.8802   -1.3452 H       1  UNL1        0.0000
     45 H           7.9055    0.6830    0.0581 H       1  UNL1        0.0000
@<TRIPOS>BOND
     1     1     2    1
     2     2     3    2
     3     3     4    1
     4     4     5   ar
     5     5     6   ar
     6     6     7   ar
     7     7     8   ar
     8     7     9    1
     9     9    10   ar
    10    10    11   ar
    11    11    12   ar
    12    12    13   ar
    13    13    14   ar
    14    13    15   ar
    15    15    16   ar
    16    16    17   ar
    17    17    18   ar
    18    18    19   ar
    19    19    20   ar
    20    20    21   ar
    21    21    22   ar
    22    22    23   ar
    23    23    24   ar
    24    24    25   ar
    25    25    26   ar
    26    26    27   ar
    27    27    28   ar
    28    28    29   ar
    29    29    30   ar
    30    30    31   ar
    31    31    32   ar
    32     8     1    1
    33    14     9   ar
    34    32    17   ar
    35     8     4   ar
    36    18    12   ar
    37    23    19   ar
    38    32    24   ar
    39    31    27   ar
    40     1    33    1
    41     1    34    1
    42     2    35    1
    43     3    36    1
    44     5    37    1
    45    10    38    1
    46    11    39    1
    47    14    40    1
    48    16    41    1
    49    20    42    1
    50    22    43    1
    51    25    44    1
    52    26    45    1
