@<TRIPOS>MOLECULE
*****
 45 47 0 0 0
SMALL
GASTEIGER

@<TRIPOS>ATOM
      1 O           1.2592   -2.3816   -1.9428 O.2     1  UNL1       -0.2741
      2 C           0.8183   -1.2506   -1.7599 C.2     1  UNL1        0.2308
      3 C           1.6554    0.0061   -2.0065 C.3     1  UNL1        0.0961
      4 N           2.2935    0.4596   -0.7669 N.am    1  UNL1       -0.2609
      5 C           1.5190    1.2650    0.0683 C.2     1  UNL1        0.2304
      6 O           0.3542    1.5642   -0.2224 O.2     1  UNL1       -0.2743
      7 C           2.0720    1.6478    1.4211 C.3     1  UNL1        0.0754
      8 S           3.7667    2.2327    1.3197 S.3     1  UNL1       -0.1140
      9 C           4.4221    0.8272    0.4478 C.ar    1  UNL1        0.0297
     10 C           5.7656    0.4948    0.6827 C.ar    1  UNL1       -0.0465
     11 C           6.3573   -0.5730    0.0144 C.ar    1  UNL1       -0.0606
     12 C           5.6098   -1.3103   -0.8949 C.ar    1  UNL1       -0.0599
     13 C           4.2734   -0.9759   -1.1424 C.ar    1  UNL1       -0.0392
     14 C           3.6533    0.0986   -0.4816 C.ar    1  UNL1        0.0502
     15 N          -0.4482   -0.9957   -1.2810 N.am    1  UNL1       -0.3137
     16 C          -1.3172   -2.0615   -0.8187 C.3     1  UNL1        0.0153
     17 C          -2.7985   -1.6653   -0.8563 C.3     1  UNL1       -0.0161
     18 C          -3.2743   -0.5528    0.0649 C.2     1  UNL1       -0.0720
     19 C          -2.5726   -0.0502    1.0993 C.2     1  UNL1       -0.0847
     20 C          -3.0432    1.0880    1.9598 C.3     1  UNL1       -0.0345
     21 C          -4.2312    1.8418    1.3655 C.3     1  UNL1       -0.0493
     22 C          -5.2640    0.8705    0.8105 C.3     1  UNL1       -0.0491
     23 C          -4.6536   -0.0207   -0.2737 C.3     1  UNL1       -0.0317
     24 H           2.3864   -0.1764   -2.8021 H       1  UNL1        0.0564
     25 H           0.9982    0.7945   -2.3956 H       1  UNL1        0.0564
     26 H           1.9990    0.7849    2.0912 H       1  UNL1        0.0475
     27 H           1.4566    2.4529    1.8348 H       1  UNL1        0.0475
     28 H           6.3605    1.0686    1.3896 H       1  UNL1        0.0629
     29 H           7.3966   -0.8277    0.2028 H       1  UNL1        0.0618
     30 H           6.0611   -2.1526   -1.4155 H       1  UNL1        0.0618
     31 H           3.7340   -1.6049   -1.8457 H       1  UNL1        0.0636
     32 H          -0.6258   -0.0527   -0.9285 H       1  UNL1        0.1487
     33 H          -1.1632   -2.9377   -1.4596 H       1  UNL1        0.0465
     34 H          -0.9995   -2.3429    0.1913 H       1  UNL1        0.0465
     35 H          -3.0356   -1.3743   -1.8890 H       1  UNL1        0.0325
     36 H          -3.3971   -2.5578   -0.6338 H       1  UNL1        0.0325
     37 H          -1.5976   -0.4492    1.3634 H       1  UNL1        0.0572
     38 H          -2.2173    1.7906    2.1157 H       1  UNL1        0.0307
     39 H          -3.3148    0.6863    2.9444 H       1  UNL1        0.0307
     40 H          -4.6848    2.4792    2.1327 H       1  UNL1        0.0268
     41 H          -3.8840    2.5049    0.5631 H       1  UNL1        0.0268
     42 H          -6.1187    1.4206    0.3996 H       1  UNL1        0.0268
     43 H          -5.6516    0.2454    1.6257 H       1  UNL1        0.0268
     44 H          -4.5813    0.5470   -1.2106 H       1  UNL1        0.0310
     45 H          -5.3385   -0.8575   -0.4566 H       1  UNL1        0.0310
@<TRIPOS>BOND
     1     1     2    2
     2     2     3    1
     3     3     4    1
     4     4     5   am
     5     5     6    2
     6     5     7    1
     7     7     8    1
     8     8     9    1
     9     9    10   ar
    10    10    11   ar
    11    11    12   ar
    12    12    13   ar
    13    13    14   ar
    14     2    15   am
    15    15    16    1
    16    16    17    1
    17    17    18    1
    18    18    19    2
    19    19    20    1
    20    20    21    1
    21    21    22    1
    22    22    23    1
    23    14     4    1
    24    23    18    1
    25    14     9   ar
    26     3    24    1
    27     3    25    1
    28     7    26    1
    29     7    27    1
    30    10    28    1
    31    11    29    1
    32    12    30    1
    33    13    31    1
    34    15    32    1
    35    16    33    1
    36    16    34    1
    37    17    35    1
    38    17    36    1
    39    19    37    1
    40    20    38    1
    41    20    39    1
    42    21    40    1
    43    21    41    1
    44    22    42    1
    45    22    43    1
    46    23    44    1
    47    23    45    1
