@<TRIPOS>MOLECULE
*****
 41 44 0 0 0
SMALL
GASTEIGER

@<TRIPOS>ATOM
      1 O           1.3076   -2.3406    1.6185 O.2     1  UNL1       -0.2738
      2 C           0.5517   -1.5565    1.0423 C.2     1  UNL1        0.2331
      3 C          -0.6197   -0.9471    1.7923 C.3     1  UNL1        0.1015
      4 N          -1.5633   -0.2038    0.9762 N.ar    1  UNL1       -0.3142
      5 C          -2.7454   -0.6558    0.4274 C.ar    1  UNL1        0.1504
      6 C          -3.2789   -1.9866    0.4509 C.ar    1  UNL1        0.0740
      7 C          -4.6128   -2.3313    0.5794 C.ar    1  UNL1        0.0454
      8 N          -4.8994   -3.6848    0.5560 N.ar    1  UNL1       -0.2550
      9 C          -3.7849   -4.3519    0.3608 C.ar    1  UNL1        0.0653
     10 S          -2.3591   -3.4142    0.2085 S.2     1  UNL1       -0.0724
     11 N          -3.3996    0.3395   -0.1406 N.ar    1  UNL1       -0.2269
     12 C          -2.6040    1.4461   -0.0124 C.ar    1  UNL1        0.0897
     13 C          -2.8142    2.7546   -0.4701 C.ar    1  UNL1       -0.0342
     14 C          -1.8310    3.7200   -0.2242 C.ar    1  UNL1       -0.0596
     15 C          -0.6632    3.3888    0.4645 C.ar    1  UNL1       -0.0597
     16 C          -0.4398    2.0894    0.9340 C.ar    1  UNL1       -0.0360
     17 C          -1.4377    1.1396    0.6779 C.ar    1  UNL1        0.0695
     18 N           0.7451   -1.1799   -0.2668 N.am    1  UNL1       -0.3097
     19 C           1.9457   -1.5362   -0.9903 C.3     1  UNL1        0.0369
     20 C           2.9455   -0.4111   -0.9157 C.ar    1  UNL1       -0.0303
     21 C           3.8645   -0.3506    0.1417 C.ar    1  UNL1       -0.0571
     22 C           4.7666    0.7097    0.2360 C.ar    1  UNL1       -0.0615
     23 C           4.7538    1.7234   -0.7201 C.ar    1  UNL1       -0.0617
     24 C           3.8374    1.6799   -1.7694 C.ar    1  UNL1       -0.0615
     25 C           2.9342    0.6200   -1.8660 C.ar    1  UNL1       -0.0571
     26 H          -1.1647   -1.7324    2.3237 H       1  UNL1        0.0588
     27 H          -0.2217   -0.2626    2.5496 H       1  UNL1        0.0588
     28 H          -5.4233   -1.6214    0.7016 H       1  UNL1        0.0842
     29 H          -3.7629   -5.4320    0.2944 H       1  UNL1        0.0907
     30 H          -3.7229    3.0036   -1.0073 H       1  UNL1        0.0639
     31 H          -1.9812    4.7382   -0.5758 H       1  UNL1        0.0618
     32 H           0.0889    4.1558    0.6413 H       1  UNL1        0.0618
     33 H           0.4749    1.8438    1.4646 H       1  UNL1        0.0639
     34 H           0.2191   -0.4065   -0.6534 H       1  UNL1        0.1491
     35 H           2.3767   -2.4649   -0.6004 H       1  UNL1        0.0512
     36 H           1.6595   -1.7215   -2.0315 H       1  UNL1        0.0512
     37 H           3.8756   -1.1316    0.9008 H       1  UNL1        0.0621
     38 H           5.4781    0.7446    1.0571 H       1  UNL1        0.0618
     39 H           5.4576    2.5484   -0.6466 H       1  UNL1        0.0618
     40 H           3.8257    2.4730   -2.5128 H       1  UNL1        0.0618
     41 H           2.2214    0.6048   -2.6875 H       1  UNL1        0.0621
@<TRIPOS>BOND
     1     1     2    2
     2     2     3    1
     3     3     4    1
     4     4     5   ar
     5     5     6    1
     6     6     7   ar
     7     7     8   ar
     8     8     9   ar
     9     9    10   ar
    10     5    11   ar
    11    11    12   ar
    12    12    13   ar
    13    13    14   ar
    14    14    15   ar
    15    15    16   ar
    16    16    17   ar
    17     2    18   am
    18    18    19    1
    19    19    20    1
    20    20    21   ar
    21    21    22   ar
    22    22    23   ar
    23    23    24   ar
    24    24    25   ar
    25    17     4   ar
    26    25    20   ar
    27    10     6   ar
    28    17    12   ar
    29     3    26    1
    30     3    27    1
    31     7    28    1
    32     9    29    1
    33    13    30    1
    34    14    31    1
    35    15    32    1
    36    16    33    1
    37    18    34    1
    38    19    35    1
    39    19    36    1
    40    21    37    1
    41    22    38    1
    42    23    39    1
    43    24    40    1
    44    25    41    1
