@<TRIPOS>MOLECULE
*****
 45 47 0 0 0
SMALL
GASTEIGER

@<TRIPOS>ATOM
      1 O           2.2430    1.2823   -1.2951 O.2     1  UNL1       -0.2494
      2 C           2.0341    0.4459   -0.4234 C.2     1  UNL1        0.3216
      3 C           0.8958   -0.5664   -0.4750 C.3     1  UNL1        0.0970
      4 N          -0.2017   -0.2008    0.4440 N.3     1  UNL1       -0.2895
      5 C          -0.9460    0.9978   -0.0060 C.3     1  UNL1        0.0152
      6 C          -2.2686    0.7300   -0.7652 C.3     1  UNL1        0.0250
      7 N          -3.1758   -0.1226    0.0226 N.pl3   1  UNL1       -0.3274
      8 C          -4.5508   -0.0311   -0.1128 C.ar    1  UNL1        0.0299
      9 C          -5.1440    0.4792   -1.2827 C.ar    1  UNL1       -0.0379
     10 C          -6.5330    0.5717   -1.4306 C.ar    1  UNL1       -0.0247
     11 C          -7.3580    0.1508   -0.4014 C.ar    1  UNL1        0.1235
     12 F          -8.6874    0.2377   -0.5373 F       1  UNL1       -0.2055
     13 C          -6.8186   -0.3607    0.7669 C.ar    1  UNL1       -0.0247
     14 C          -5.4281   -0.4503    0.9040 C.ar    1  UNL1       -0.0379
     15 C          -2.5485   -0.9708    1.0488 C.3     1  UNL1        0.0250
     16 C          -1.1117   -1.3537    0.6252 C.3     1  UNL1        0.0152
     17 O           2.7612    0.2909    0.7174 O.3     1  UNL1       -0.4590
     18 C           3.8690    1.1824    0.8732 C.3     1  UNL1        0.1176
     19 C           5.1285    0.5053    0.3993 C.ar    1  UNL1       -0.0103
     20 C           5.6378    0.7660   -0.8802 C.ar    1  UNL1       -0.0554
     21 C           6.7946    0.1243   -1.3254 C.ar    1  UNL1       -0.0614
     22 C           7.4483   -0.7885   -0.4997 C.ar    1  UNL1       -0.0617
     23 C           6.9437   -1.0649    0.7697 C.ar    1  UNL1       -0.0614
     24 C           5.7867   -0.4244    1.2165 C.ar    1  UNL1       -0.0554
     25 H           1.3260   -1.5394   -0.2041 H       1  UNL1        0.0542
     26 H           0.5467   -0.6526   -1.5114 H       1  UNL1        0.0542
     27 H          -0.3192    1.6683   -0.6044 H       1  UNL1        0.0442
     28 H          -1.1927    1.5673    0.9003 H       1  UNL1        0.0442
     29 H          -2.7274    1.7052   -0.9690 H       1  UNL1        0.0476
     30 H          -2.0554    0.2449   -1.7253 H       1  UNL1        0.0476
     31 H          -4.5285    0.7956   -2.1203 H       1  UNL1        0.0637
     32 H          -6.9670    0.9641   -2.3440 H       1  UNL1        0.0647
     33 H          -7.4750   -0.6838    1.5679 H       1  UNL1        0.0647
     34 H          -5.0426   -0.8377    1.8429 H       1  UNL1        0.0637
     35 H          -2.5331   -0.4444    2.0108 H       1  UNL1        0.0476
     36 H          -3.1101   -1.9040    1.1769 H       1  UNL1        0.0476
     37 H          -1.1865   -1.9285   -0.3087 H       1  UNL1        0.0442
     38 H          -0.6818   -2.0210    1.3811 H       1  UNL1        0.0442
     39 H           3.9570    1.4147    1.9411 H       1  UNL1        0.0749
     40 H           3.7108    2.1444    0.3703 H       1  UNL1        0.0749
     41 H           5.1302    1.4680   -1.5399 H       1  UNL1        0.0621
     42 H           7.1830    0.3348   -2.3185 H       1  UNL1        0.0618
     43 H           8.3486   -1.2882   -0.8475 H       1  UNL1        0.0618
     44 H           7.4494   -1.7818    1.4111 H       1  UNL1        0.0618
     45 H           5.3972   -0.6562    2.2055 H       1  UNL1        0.0621
@<TRIPOS>BOND
     1     1     2    2
     2     2     3    1
     3     3     4    1
     4     4     5    1
     5     5     6    1
     6     6     7    1
     7     7     8    1
     8     8     9   ar
     9     9    10   ar
    10    10    11   ar
    11    11    12    1
    12    11    13   ar
    13    13    14   ar
    14     7    15    1
    15    15    16    1
    16     2    17    1
    17    17    18    1
    18    18    19    1
    19    19    20   ar
    20    20    21   ar
    21    21    22   ar
    22    22    23   ar
    23    23    24   ar
    24    16     4    1
    25    24    19   ar
    26    14     8   ar
    27     3    25    1
    28     3    26    1
    29     5    27    1
    30     5    28    1
    31     6    29    1
    32     6    30    1
    33     9    31    1
    34    10    32    1
    35    13    33    1
    36    14    34    1
    37    15    35    1
    38    15    36    1
    39    16    37    1
    40    16    38    1
    41    18    39    1
    42    18    40    1
    43    20    41    1
    44    21    42    1
    45    22    43    1
    46    23    44    1
    47    24    45    1
