@<TRIPOS>MOLECULE
*****
 33 34 0 0 0
SMALL
GASTEIGER

@<TRIPOS>ATOM
      1 O          -1.0262    1.9427    1.1866 O.2     1  UNL1       -0.2741
      2 C          -0.6141    1.2758    0.2413 C.2     1  UNL1        0.2313
      3 C           0.8253    1.4266   -0.2829 C.3     1  UNL1        0.0761
      4 N           1.8000    0.8278    0.6433 N.3     1  UNL1       -0.2916
      5 C           3.1554    1.3487    0.3811 C.3     1  UNL1        0.0120
      6 C           4.2693    0.4321    0.9281 C.3     1  UNL1        0.0087
      7 N           4.2744   -0.9135    0.3311 N.3     1  UNL1       -0.3136
      8 C           2.9288   -1.3182   -0.1057 C.3     1  UNL1        0.0087
      9 C           1.7785   -0.6470    0.6778 C.3     1  UNL1        0.0120
     10 N          -1.3458    0.3383   -0.4702 N.am    1  UNL1       -0.2832
     11 C          -2.6880   -0.0629   -0.2682 C.ar    1  UNL1        0.0519
     12 C          -3.5169    0.4874    0.7124 C.ar    1  UNL1       -0.0390
     13 C          -4.8371    0.0453    0.8589 C.ar    1  UNL1       -0.0599
     14 C          -5.3450   -0.9510    0.0282 C.ar    1  UNL1       -0.0603
     15 C          -4.5329   -1.5112   -0.9547 C.ar    1  UNL1       -0.0416
     16 C          -3.2150   -1.0699   -1.1005 C.ar    1  UNL1        0.0621
     17 CL         -2.2432   -1.8008   -2.3359 Cl      1  UNL1       -0.0816
     18 H           0.9927    2.5083   -0.3699 H       1  UNL1        0.0522
     19 H           0.9252    1.0095   -1.2921 H       1  UNL1        0.0522
     20 H           3.3200    1.4759   -0.6979 H       1  UNL1        0.0439
     21 H           3.2482    2.3394    0.8410 H       1  UNL1        0.0439
     22 H           4.1595    0.3317    2.0150 H       1  UNL1        0.0437
     23 H           5.2462    0.8986    0.7577 H       1  UNL1        0.0437
     24 H           4.9018   -0.9342   -0.4714 H       1  UNL1        0.1220
     25 H           2.8144   -1.0812   -1.1712 H       1  UNL1        0.0437
     26 H           2.8478   -2.4065   -0.0130 H       1  UNL1        0.0437
     27 H           0.8243   -1.0552    0.3294 H       1  UNL1        0.0439
     28 H           1.8574   -0.9501    1.7302 H       1  UNL1        0.0439
     29 H          -0.8681   -0.1585   -1.2143 H       1  UNL1        0.1549
     30 H          -3.1688    1.2654    1.3851 H       1  UNL1        0.0636
     31 H          -5.4671    0.4854    1.6291 H       1  UNL1        0.0618
     32 H          -6.3712   -1.2895    0.1485 H       1  UNL1        0.0618
     33 H          -4.9300   -2.2891   -1.6012 H       1  UNL1        0.0633
@<TRIPOS>BOND
     1     1     2    2
     2     2     3    1
     3     3     4    1
     4     4     5    1
     5     5     6    1
     6     6     7    1
     7     7     8    1
     8     8     9    1
     9     2    10   am
    10    10    11    1
    11    11    12   ar
    12    12    13   ar
    13    13    14   ar
    14    14    15   ar
    15    15    16   ar
    16    16    17    1
    17     9     4    1
    18    16    11   ar
    19     3    18    1
    20     3    19    1
    21     5    20    1
    22     5    21    1
    23     6    22    1
    24     6    23    1
    25     7    24    1
    26     8    25    1
    27     8    26    1
    28     9    27    1
    29     9    28    1
    30    10    29    1
    31    12    30    1
    32    13    31    1
    33    14    32    1
    34    15    33    1
