@<TRIPOS>MOLECULE
*****
 33 35 0 0 0
SMALL
GASTEIGER

@<TRIPOS>ATOM
      1 O           1.1731   -1.6950    2.8635 O.2     1  UNL1       -0.2738
      2 C           1.0420   -0.6178    2.2885 C.2     1  UNL1        0.2350
      3 C          -0.0230    0.4010    2.6776 C.3     1  UNL1        0.1229
      4 N          -1.2124    0.1886    1.8699 N.ar    1  UNL1       -0.2015
      5 N          -2.2300   -0.5013    2.4616 N.ar    1  UNL1       -0.0617
      6 N          -3.3014   -0.7290    1.8602 N.ar    1  UNL1       -0.1308
      7 C          -3.4792   -0.2704    0.5501 C.ar    1  UNL1        0.1001
      8 C          -4.6920   -0.5278   -0.0995 C.ar    1  UNL1       -0.0337
      9 C          -4.9103   -0.0885   -1.4094 C.ar    1  UNL1       -0.0597
     10 C          -3.9140    0.6151   -2.0852 C.ar    1  UNL1       -0.0609
     11 C          -2.7016    0.8778   -1.4508 C.ar    1  UNL1       -0.0473
     12 C          -2.5025    0.4301   -0.1397 C.ar    1  UNL1        0.0681
     13 C          -1.2553    0.6714    0.5776 C.ar    1  UNL1        0.2782
     14 O          -0.3209    1.2520    0.0287 O.2     1  UNL1       -0.2654
     15 N           1.8074   -0.2439    1.2040 N.am    1  UNL1       -0.3067
     16 C           2.7479   -1.1725    0.6240 C.3     1  UNL1        0.0698
     17 C           3.4961   -0.4876   -0.4559 C.ar    1  UNL1        0.1218
     18 C           3.1844   -0.1544   -1.7589 C.ar    1  UNL1       -0.0192
     19 C           4.3226    0.5007   -2.2872 C.ar    1  UNL1       -0.0236
     20 C           5.2538    0.5259   -1.2760 C.ar    1  UNL1        0.0921
     21 O           4.7615   -0.0713   -0.1606 O.2     1  UNL1       -0.4662
     22 H           0.3589    1.4157    2.5180 H       1  UNL1        0.0607
     23 H          -0.2594    0.2907    3.7414 H       1  UNL1        0.0607
     24 H          -5.4740   -1.0770    0.4206 H       1  UNL1        0.0639
     25 H          -5.8585   -0.2968   -1.9003 H       1  UNL1        0.0618
     26 H          -4.0826    0.9575   -3.1037 H       1  UNL1        0.0618
     27 H          -1.9202    1.4265   -1.9712 H       1  UNL1        0.0626
     28 H           1.4275    0.4859    0.6008 H       1  UNL1        0.1492
     29 H           2.1879   -2.0256    0.2256 H       1  UNL1        0.0542
     30 H           3.4163   -1.5421    1.4089 H       1  UNL1        0.0542
     31 H           2.2479   -0.3565   -2.2601 H       1  UNL1        0.0652
     32 H           4.4496    0.9070   -3.2806 H       1  UNL1        0.0649
     33 H           6.2602    0.9117   -1.1928 H       1  UNL1        0.1029
@<TRIPOS>BOND
     1     1     2    2
     2     2     3    1
     3     3     4    1
     4     4     5   ar
     5     5     6   ar
     6     6     7   ar
     7     7     8   ar
     8     8     9   ar
     9     9    10   ar
    10    10    11   ar
    11    11    12   ar
    12    12    13   ar
    13    13    14    2
    14     2    15   am
    15    15    16    1
    16    16    17    1
    17    17    18   ar
    18    18    19   ar
    19    19    20   ar
    20    20    21   ar
    21    13     4   ar
    22    21    17   ar
    23    12     7   ar
    24     3    22    1
    25     3    23    1
    26     8    24    1
    27     9    25    1
    28    10    26    1
    29    11    27    1
    30    15    28    1
    31    16    29    1
    32    16    30    1
    33    18    31    1
    34    19    32    1
    35    20    33    1
