@<TRIPOS>MOLECULE
*****
 36 37 0 0 0
SMALL
GASTEIGER

@<TRIPOS>ATOM
      1 O          -2.5138   -2.8888    1.8497 O.2     1  UNL1       -0.2721
      2 C          -1.9909   -2.4503    0.8281 C.2     1  UNL1        0.2511
      3 C          -1.3100   -3.3618   -0.1962 C.3     1  UNL1        0.1683
      4 O           0.1034   -3.4514   -0.0143 O.3     1  UNL1       -0.4521
      5 C           0.7975   -2.3758   -0.4590 C.2     1  UNL1        0.3324
      6 O           0.3210   -1.4034   -1.0200 O.2     1  UNL1       -0.2456
      7 C           2.2220   -2.5824   -0.1232 C.2     1  UNL1        0.0231
      8 C           3.1329   -1.6024   -0.0130 C.2     1  UNL1       -0.0465
      9 C           2.8768   -0.1644   -0.1748 C.ar    1  UNL1       -0.0065
     10 C           3.3282    0.4527   -1.3505 C.ar    1  UNL1       -0.0532
     11 C           3.1110    1.8159   -1.5661 C.ar    1  UNL1       -0.0611
     12 C           2.4421    2.5770   -0.6098 C.ar    1  UNL1       -0.0603
     13 C           1.9918    1.9771    0.5660 C.ar    1  UNL1       -0.0428
     14 C           2.2086    0.6138    0.7866 C.ar    1  UNL1        0.0481
     15 CL          1.6450   -0.0605    2.2773 Cl      1  UNL1       -0.0829
     16 N          -1.9759   -1.1127    0.5020 N.am    1  UNL1       -0.3054
     17 C          -2.4181   -0.1278    1.4599 C.3     1  UNL1        0.0698
     18 C          -2.5778    1.1703    0.7647 C.ar    1  UNL1        0.1218
     19 C          -3.6228    1.7522    0.0760 C.ar    1  UNL1       -0.0192
     20 C          -3.1543    3.0101   -0.3733 C.ar    1  UNL1       -0.0236
     21 C          -1.8560    3.1148    0.0672 C.ar    1  UNL1        0.0921
     22 O          -1.4973    2.0045    0.7610 O.2     1  UNL1       -0.4662
     23 H          -1.7232   -4.3692   -0.0746 H       1  UNL1        0.0796
     24 H          -1.5611   -3.0456   -1.2163 H       1  UNL1        0.0796
     25 H           2.5160   -3.6106    0.0596 H       1  UNL1        0.0689
     26 H           4.1603   -1.8552    0.2386 H       1  UNL1        0.0626
     27 H           3.8425   -0.1270   -2.1140 H       1  UNL1        0.0624
     28 H           3.4586    2.2813   -2.4852 H       1  UNL1        0.0618
     29 H           2.2674    3.6361   -0.7807 H       1  UNL1        0.0618
     30 H           1.4645    2.5741    1.3060 H       1  UNL1        0.0632
     31 H          -1.2675   -0.8110   -0.1691 H       1  UNL1        0.1492
     32 H          -3.3650   -0.4510    1.9059 H       1  UNL1        0.0542
     33 H          -1.6712   -0.0648    2.2580 H       1  UNL1        0.0542
     34 H          -4.5984    1.3145   -0.0851 H       1  UNL1        0.0652
     35 H          -3.6936    3.7475   -0.9506 H       1  UNL1        0.0649
     36 H          -1.0926    3.8741   -0.0259 H       1  UNL1        0.1029
@<TRIPOS>BOND
     1     1     2    2
     2     2     3    1
     3     3     4    1
     4     4     5    1
     5     5     6    2
     6     5     7    1
     7     7     8    2
     8     8     9    1
     9     9    10   ar
    10    10    11   ar
    11    11    12   ar
    12    12    13   ar
    13    13    14   ar
    14    14    15    1
    15     2    16   am
    16    16    17    1
    17    17    18    1
    18    18    19   ar
    19    19    20   ar
    20    20    21   ar
    21    21    22   ar
    22    14     9   ar
    23    22    18   ar
    24     3    23    1
    25     3    24    1
    26     7    25    1
    27     8    26    1
    28    10    27    1
    29    11    28    1
    30    12    29    1
    31    13    30    1
    32    16    31    1
    33    17    32    1
    34    17    33    1
    35    19    34    1
    36    20    35    1
    37    21    36    1
