@<TRIPOS>MOLECULE
*****
 35 36 0 0 0
SMALL
GASTEIGER

@<TRIPOS>ATOM
      1 O          -3.1558    1.3783   -2.2445 O.2     1  UNL1       -0.2717
      2 C          -2.5059    0.3697   -1.9866 C.2     1  UNL1        0.2560
      3 C          -1.4280   -0.1446   -2.9464 C.3     1  UNL1        0.1684
      4 O          -0.4027   -0.9208   -2.3188 O.3     1  UNL1       -0.4541
      5 C           0.5405   -0.1866   -1.6639 C.2     1  UNL1        0.3249
      6 O           0.5384    1.0342   -1.5610 O.2     1  UNL1       -0.2491
      7 C           1.6024   -1.0939   -1.0679 C.3     1  UNL1        0.1094
      8 N           2.5698   -0.3058   -0.3269 N.am    1  UNL1       -0.2983
      9 C           3.6350   -0.9048    0.3118 C.2     1  UNL1        0.2798
     10 O           3.7816   -2.1248    0.2676 O.2     1  UNL1       -0.2668
     11 C           4.5287    0.0010    1.0094 C.ar    1  UNL1        0.1890
     12 C           4.5425    1.3752    1.1893 C.ar    1  UNL1       -0.0113
     13 C           5.6830    1.6788    1.9741 C.ar    1  UNL1       -0.0231
     14 C           6.2997    0.4789    2.2291 C.ar    1  UNL1        0.0928
     15 O           5.6133   -0.5385    1.6531 O.2     1  UNL1       -0.4583
     16 N          -2.6776   -0.4497   -0.8945 N.am    1  UNL1       -0.2676
     17 C          -3.5486   -0.2956    0.1802 C.ar    1  UNL1        0.1250
     18 C          -4.4192    0.7757    0.3371 C.ar    1  UNL1       -0.0201
     19 C          -5.2427    0.8189    1.4650 C.ar    1  UNL1       -0.0387
     20 C          -5.1703   -0.2048    2.3981 C.ar    1  UNL1        0.0592
     21 CL         -6.1622   -0.1919    3.7965 Cl      1  UNL1       -0.0820
     22 C          -4.2741   -1.2338    2.1662 C.ar    1  UNL1        0.0480
     23 N          -3.4632   -1.3002    1.0799 N.ar    1  UNL1       -0.2387
     24 H          -1.9229   -0.7905   -3.6794 H       1  UNL1        0.0796
     25 H          -0.9908    0.6995   -3.4929 H       1  UNL1        0.0796
     26 H           2.1258   -1.6245   -1.8687 H       1  UNL1        0.0578
     27 H           1.1360   -1.8048   -0.3792 H       1  UNL1        0.0578
     28 H           2.4465    0.6998   -0.3083 H       1  UNL1        0.1497
     29 H           3.8214    2.0829    0.8061 H       1  UNL1        0.0657
     30 H           6.0140    2.6508    2.3122 H       1  UNL1        0.0649
     31 H           7.1876    0.1918    2.7754 H       1  UNL1        0.1029
     32 H          -2.1192   -1.2907   -0.8251 H       1  UNL1        0.1563
     33 H          -4.4800    1.5815   -0.3850 H       1  UNL1        0.0652
     34 H          -5.9287    1.6501    1.6015 H       1  UNL1        0.0634
     35 H          -4.1744   -2.0610    2.8633 H       1  UNL1        0.0845
@<TRIPOS>BOND
     1     1     2    2
     2     2     3    1
     3     3     4    1
     4     4     5    1
     5     5     6    2
     6     5     7    1
     7     7     8    1
     8     8     9   am
     9     9    10    2
    10     9    11    1
    11    11    12   ar
    12    12    13   ar
    13    13    14   ar
    14    14    15   ar
    15     2    16   am
    16    16    17    1
    17    17    18   ar
    18    18    19   ar
    19    19    20   ar
    20    20    21    1
    21    20    22   ar
    22    22    23   ar
    23    15    11   ar
    24    23    17   ar
    25     3    24    1
    26     3    25    1
    27     7    26    1
    28     7    27    1
    29     8    28    1
    30    12    29    1
    31    13    30    1
    32    14    31    1
    33    16    32    1
    34    18    33    1
    35    19    34    1
    36    22    35    1
