@<TRIPOS>MOLECULE
*****
 35 36 0 0 0
SMALL
GASTEIGER

@<TRIPOS>ATOM
      1 O          -1.7411   -2.9009    1.2850 O.2     1  UNL1       -0.2721
      2 C          -0.8502   -2.8009    0.4461 C.2     1  UNL1        0.2509
      3 C           0.5783   -3.2966    0.7083 C.3     1  UNL1        0.1651
      4 O           1.6066   -2.5480    0.0645 O.3     1  UNL1       -0.4828
      5 C           1.7512   -1.2346    0.4246 C.ar    1  UNL1        0.1216
      6 C           2.4754   -0.4591   -0.4872 C.ar    1  UNL1       -0.0135
      7 C           2.6332    0.9141   -0.2866 C.ar    1  UNL1        0.0190
      8 C           2.0698    1.5096    0.8472 C.ar    1  UNL1        0.2734
      9 N           2.1889    2.9585    1.0445 N.pl3   1  UNL1        0.0796
     10 O           1.7406    3.4383    2.0959 O.2     1  UNL1        0.0414
     11 O           2.7303    3.6201    0.1465 O.co2   1  UNL1       -0.5760
     12 C           1.3797    0.7349    1.7867 C.ar    1  UNL1        0.0190
     13 C           1.2246   -0.6390    1.5731 C.ar    1  UNL1       -0.0135
     14 N          -1.0306   -2.2611   -0.8109 N.am    1  UNL1       -0.3084
     15 C          -2.2003   -1.4750   -1.1270 C.3     1  UNL1        0.0369
     16 C          -1.9503   -0.0172   -0.8283 C.ar    1  UNL1       -0.0303
     17 C          -1.3229    0.8100   -1.7716 C.ar    1  UNL1       -0.0571
     18 C          -1.0608    2.1493   -1.4761 C.ar    1  UNL1       -0.0615
     19 C          -1.4179    2.6736   -0.2351 C.ar    1  UNL1       -0.0617
     20 C          -2.0323    1.8588    0.7137 C.ar    1  UNL1       -0.0615
     21 C          -2.2931    0.5190    0.4213 C.ar    1  UNL1       -0.0571
     22 H           0.7646   -3.3601    1.7863 H       1  UNL1        0.0795
     23 H           0.6327   -4.3192    0.3180 H       1  UNL1        0.0795
     24 H           2.9004   -0.9238   -1.3743 H       1  UNL1        0.0656
     25 H           3.1804    1.4992   -1.0223 H       1  UNL1        0.0686
     26 H           0.9381    1.1838    2.6742 H       1  UNL1        0.0686
     27 H           0.6707   -1.2056    2.3160 H       1  UNL1        0.0656
     28 H          -0.1855   -2.0503   -1.3286 H       1  UNL1        0.1491
     29 H          -3.0709   -1.8415   -0.5717 H       1  UNL1        0.0512
     30 H          -2.4109   -1.6097   -2.1936 H       1  UNL1        0.0512
     31 H          -1.0357    0.4160   -2.7437 H       1  UNL1        0.0621
     32 H          -0.5796    2.7858   -2.2145 H       1  UNL1        0.0618
     33 H          -1.2164    3.7174   -0.0060 H       1  UNL1        0.0618
     34 H          -2.3063    2.2658    1.6838 H       1  UNL1        0.0618
     35 H          -2.7607   -0.1116    1.1761 H       1  UNL1        0.0621
@<TRIPOS>UNITY_ATOM_ATTR
9 1
charge 1
11 1
charge -1
@<TRIPOS>BOND
     1     1     2    2
     2     2     3    1
     3     3     4    1
     4     4     5    1
     5     5     6   ar
     6     6     7   ar
     7     7     8   ar
     8     8     9    1
     9     9    10    2
    10     9    11    1
    11     8    12   ar
    12    12    13   ar
    13     2    14   am
    14    14    15    1
    15    15    16    1
    16    16    17   ar
    17    17    18   ar
    18    18    19   ar
    19    19    20   ar
    20    20    21   ar
    21    13     5   ar
    22    21    16   ar
    23     3    22    1
    24     3    23    1
    25     6    24    1
    26     7    25    1
    27    12    26    1
    28    13    27    1
    29    14    28    1
    30    15    29    1
    31    15    30    1
    32    17    31    1
    33    18    32    1
    34    19    33    1
    35    20    34    1
    36    21    35    1
