@<TRIPOS>MOLECULE
*****
 39 41 0 0 0
SMALL
GASTEIGER

@<TRIPOS>ATOM
      1 O           2.4782   -1.0678    1.9373 O.2     1  UNL1       -0.2717
      2 C           2.1333   -0.5089    0.8997 C.2     1  UNL1        0.2549
      3 C           0.6502   -0.3802    0.5417 C.3     1  UNL1        0.1671
      4 O           0.4402    0.5157   -0.5618 O.3     1  UNL1       -0.4659
      5 C          -0.8549    0.7166   -0.9055 C.ar    1  UNL1        0.2335
      6 C          -0.9203    1.6910   -1.9850 C.ar    1  UNL1        0.0066
      7 C          -2.1483    1.9771   -2.4130 C.ar    1  UNL1        0.0098
      8 C          -3.3570    1.3446   -1.8203 C.ar    1  UNL1        0.2721
      9 O          -4.4338    1.6990   -2.2949 O.2     1  UNL1       -0.2658
     10 N          -3.1240    0.4177   -0.7895 N.ar    1  UNL1       -0.1934
     11 C          -4.1619   -0.2990   -0.0884 C.ar    1  UNL1        0.0693
     12 C          -3.8275   -1.1903    0.9518 C.ar    1  UNL1       -0.0361
     13 C          -4.8042   -1.9022    1.6582 C.ar    1  UNL1       -0.0598
     14 C          -6.1469   -1.7394    1.3433 C.ar    1  UNL1       -0.0616
     15 C          -6.5075   -0.8667    0.3231 C.ar    1  UNL1       -0.0598
     16 C          -5.5258   -0.1568   -0.3838 C.ar    1  UNL1       -0.0361
     17 N          -1.8414    0.1146   -0.3412 N.ar    1  UNL1       -0.1256
     18 N           2.9664    0.0356   -0.0623 N.am    1  UNL1       -0.2827
     19 C           4.3729    0.0867   -0.0690 C.ar    1  UNL1        0.0335
     20 C           5.1768   -0.4448    0.9407 C.ar    1  UNL1       -0.0405
     21 C           6.5700   -0.3511    0.8595 C.ar    1  UNL1       -0.0600
     22 C           7.1703    0.2751   -0.2312 C.ar    1  UNL1       -0.0616
     23 C           6.3776    0.8071   -1.2440 C.ar    1  UNL1       -0.0600
     24 C           4.9858    0.7123   -1.1635 C.ar    1  UNL1       -0.0405
     25 H           0.1304    0.0023    1.4281 H       1  UNL1        0.0795
     26 H           0.2882   -1.3806    0.2788 H       1  UNL1        0.0795
     27 H          -0.0243    2.1303   -2.3957 H       1  UNL1        0.0673
     28 H          -2.3277    2.6816   -3.2160 H       1  UNL1        0.0674
     29 H          -2.7898   -1.3488    1.2353 H       1  UNL1        0.0639
     30 H          -4.5094   -2.5796    2.4558 H       1  UNL1        0.0618
     31 H          -6.9095   -2.2897    1.8884 H       1  UNL1        0.0618
     32 H          -7.5560   -0.7349    0.0638 H       1  UNL1        0.0618
     33 H          -5.8807    0.5016   -1.1684 H       1  UNL1        0.0639
     34 H           2.4885    0.4658   -0.8471 H       1  UNL1        0.1549
     35 H           4.7520   -0.9407    1.8094 H       1  UNL1        0.0636
     36 H           7.1836   -0.7697    1.6540 H       1  UNL1        0.0618
     37 H           8.2530    0.3451   -0.2902 H       1  UNL1        0.0618
     38 H           6.8423    1.2946   -2.0972 H       1  UNL1        0.0618
     39 H           4.3911    1.1367   -1.9683 H       1  UNL1        0.0636
@<TRIPOS>BOND
     1     1     2    2
     2     2     3    1
     3     3     4    1
     4     4     5    1
     5     5     6   ar
     6     6     7   ar
     7     7     8   ar
     8     8     9    2
     9     8    10   ar
    10    10    11    1
    11    11    12   ar
    12    12    13   ar
    13    13    14   ar
    14    14    15   ar
    15    15    16   ar
    16    10    17   ar
    17     2    18   am
    18    18    19    1
    19    19    20   ar
    20    20    21   ar
    21    21    22   ar
    22    22    23   ar
    23    23    24   ar
    24    17     5   ar
    25    24    19   ar
    26    16    11   ar
    27     3    25    1
    28     3    26    1
    29     6    27    1
    30     7    28    1
    31    12    29    1
    32    13    30    1
    33    14    31    1
    34    15    32    1
    35    16    33    1
    36    18    34    1
    37    20    35    1
    38    21    36    1
    39    22    37    1
    40    23    38    1
    41    24    39    1
