@<TRIPOS>MOLECULE
*****
 31 33 0 0 0
SMALL
GASTEIGER

@<TRIPOS>ATOM
      1 O           2.7773   -2.3979    1.1994 O.2     1  UNL1       -0.2717
      2 C           1.8990   -1.6816    0.7257 C.2     1  UNL1        0.2563
      3 C           0.4639   -2.1967    0.5956 C.3     1  UNL1        0.1656
      4 O          -0.0427   -1.9812   -0.7225 O.3     1  UNL1       -0.4806
      5 C          -1.3178   -1.4609   -0.7018 C.ar    1  UNL1        0.1470
      6 C          -2.3434   -2.3121   -1.1216 C.ar    1  UNL1       -0.0178
      7 C          -3.6508   -1.8439   -1.1639 C.ar    1  UNL1       -0.0576
      8 C          -3.9212   -0.5245   -0.8054 C.ar    1  UNL1       -0.0523
      9 C          -2.8824    0.3384   -0.4097 C.ar    1  UNL1        0.0040
     10 C          -3.1359    1.6738   -0.0671 C.ar    1  UNL1       -0.0510
     11 C          -2.0887    2.5082    0.3038 C.ar    1  UNL1       -0.0430
     12 C          -0.8153    1.9774    0.3249 C.ar    1  UNL1        0.0284
     13 N          -0.5313    0.6916    0.0127 N.ar    1  UNL1       -0.2513
     14 C          -1.5496   -0.1226   -0.3563 C.ar    1  UNL1        0.1125
     15 N           2.0209   -0.3721    0.3222 N.am    1  UNL1       -0.2619
     16 C           3.1396    0.4149    0.3434 C.ar    1  UNL1        0.1644
     17 N           3.0926    1.6816   -0.0062 N.ar    1  UNL1       -0.2330
     18 C           4.3534    2.2364    0.0952 C.ar    1  UNL1        0.0368
     19 C           5.3436    1.3822    0.5272 C.ar    1  UNL1       -0.0030
     20 S           4.6723   -0.1674    0.8122 S.2     1  UNL1       -0.0605
     21 H           0.4759   -3.2793    0.7666 H       1  UNL1        0.0795
     22 H          -0.1389   -1.7391    1.3910 H       1  UNL1        0.0795
     23 H          -2.1172   -3.3341   -1.4135 H       1  UNL1        0.0655
     24 H          -4.4563   -2.5006   -1.4829 H       1  UNL1        0.0619
     25 H          -4.9482   -0.1670   -0.8475 H       1  UNL1        0.0624
     26 H          -4.1475    2.0715   -0.0953 H       1  UNL1        0.0625
     27 H          -2.2623    3.5461    0.5644 H       1  UNL1        0.0633
     28 H           0.0427    2.5870    0.5997 H       1  UNL1        0.0830
     29 H           1.1790    0.1082    0.0024 H       1  UNL1        0.1568
     30 H           4.4965    3.2788   -0.1612 H       1  UNL1        0.0835
     31 H           6.3930    1.5848    0.6825 H       1  UNL1        0.0709
@<TRIPOS>BOND
     1     1     2    2
     2     2     3    1
     3     3     4    1
     4     4     5    1
     5     5     6   ar
     6     6     7   ar
     7     7     8   ar
     8     8     9   ar
     9     9    10   ar
    10    10    11   ar
    11    11    12   ar
    12    12    13   ar
    13    13    14   ar
    14     2    15   am
    15    15    16    1
    16    16    17   ar
    17    17    18   ar
    18    18    19   ar
    19    19    20   ar
    20    14     5   ar
    21    20    16   ar
    22    14     9   ar
    23     3    21    1
    24     3    22    1
    25     6    23    1
    26     7    24    1
    27     8    25    1
    28    10    26    1
    29    11    27    1
    30    12    28    1
    31    15    29    1
    32    18    30    1
    33    19    31    1
