@<TRIPOS>MOLECULE
*****
 43 49 0 0 0
SMALL
GASTEIGER

@<TRIPOS>ATOM
      1 SI         -5.3576   -1.5553   -0.0175 Si      1  UNL1        0.0000
      2 C          -7.1722   -1.3891    0.5803 C.2     1  UNL1        0.0000
      3 C          -7.3504   -0.2614    1.3032 C.2     1  UNL1        0.0000
      4 C          -6.1776    0.5430    1.4595 C.ar    1  UNL1        0.0000
      5 C          -5.9876    1.7252    2.1220 C.ar    1  UNL1        0.0000
      6 S          -4.3448    2.2449    1.9818 S.2     1  UNL1        0.0000
      7 C          -3.8915    0.8748    1.0252 C.ar    1  UNL1        0.0000
      8 C          -4.9846    0.0780    0.8456 C.ar    1  UNL1        0.0000
      9 C          -2.5198    0.7396    0.5442 C.ar    1  UNL1        0.0000
     10 C          -2.2513    0.7864   -0.8307 C.ar    1  UNL1        0.0000
     11 C          -0.9462    0.6416   -1.3061 C.ar    1  UNL1        0.0000
     12 C           0.1086    0.4437   -0.3952 C.ar    1  UNL1        0.0000
     13 C           1.4538    0.2877   -0.7995 C.ar    1  UNL1        0.0000
     14 N           2.0502    0.2873   -2.0508 N.ar    1  UNL1        0.0000
     15 C           3.4129    0.0948   -1.9554 C.ar    1  UNL1        0.0000
     16 C           4.4310    0.0191   -2.9450 C.ar    1  UNL1        0.0000
     17 C           5.7816   -0.1884   -2.5784 C.ar    1  UNL1        0.0000
     18 C           5.9520   -0.2989   -1.2033 C.ar    1  UNL1        0.0000
     19 C           7.1486   -0.5026   -0.5566 C.ar    1  UNL1        0.0000
     20 N           6.8854   -0.5527    0.8055 N.ar    1  UNL1        0.0000
     21 C           5.5359   -0.3843    1.0423 C.ar    1  UNL1        0.0000
     22 C           4.9844   -0.2312   -0.1922 C.ar    1  UNL1        0.0000
     23 C           3.6393   -0.0225   -0.5930 C.ar    1  UNL1        0.0000
     24 C           2.4644    0.0908    0.1488 C.ar    1  UNL1        0.0000
     25 N           2.2356    0.0377    1.4842 N.ar    1  UNL1        0.0000
     26 C           0.9427    0.1923    1.8469 C.ar    1  UNL1        0.0000
     27 C          -0.1424    0.3925    0.9889 C.ar    1  UNL1        0.0000
     28 C          -1.4637    0.5422    1.4466 C.ar    1  UNL1        0.0000
     29 H          -5.2835   -1.4833   -1.4989 H       1  UNL1        0.0000
     30 H          -4.7104   -2.7387    0.6011 H       1  UNL1        0.0000
     31 H          -7.9054   -2.1404    0.3354 H       1  UNL1        0.0000
     32 H          -8.3031    0.0213    1.7362 H       1  UNL1        0.0000
     33 H          -6.6995    2.3175    2.6792 H       1  UNL1        0.0000
     34 H          -3.0601    0.9492   -1.5402 H       1  UNL1        0.0000
     35 H          -0.7681    0.6879   -2.3758 H       1  UNL1        0.0000
     36 H           1.5548    0.4123   -2.9205 H       1  UNL1        0.0000
     37 H           4.1767    0.1211   -3.9974 H       1  UNL1        0.0000
     38 H           6.5806   -0.2508   -3.3046 H       1  UNL1        0.0000
     39 H           8.1609   -0.6172   -0.9187 H       1  UNL1        0.0000
     40 H           7.5835   -0.6925    1.5237 H       1  UNL1        0.0000
     41 H           5.1225   -0.3909    2.0417 H       1  UNL1        0.0000
     42 H           0.7877    0.1480    2.9232 H       1  UNL1        0.0000
     43 H          -1.6736    0.4992    2.5140 H       1  UNL1        0.0000
@<TRIPOS>BOND
     1     1     2    1
     2     2     3    2
     3     3     4    1
     4     4     5   ar
     5     5     6   ar
     6     6     7   ar
     7     7     8   ar
     8     7     9    1
     9     9    10   ar
    10    10    11   ar
    11    11    12   ar
    12    12    13   ar
    13    13    14   ar
    14    14    15   ar
    15    15    16   ar
    16    16    17   ar
    17    17    18   ar
    18    18    19   ar
    19    19    20   ar
    20    20    21   ar
    21    21    22   ar
    22    22    23   ar
    23    23    24   ar
    24    24    25   ar
    25    25    26   ar
    26    26    27   ar
    27    27    28   ar
    28     8     1    1
    29    28     9   ar
    30     8     4   ar
    31    27    12   ar
    32    24    13   ar
    33    23    15   ar
    34    22    18   ar
    35     1    29    1
    36     1    30    1
    37     2    31    1
    38     3    32    1
    39     5    33    1
    40    10    34    1
    41    11    35    1
    42    14    36    1
    43    16    37    1
    44    17    38    1
    45    19    39    1
    46    20    40    1
    47    21    41    1
    48    26    42    1
    49    28    43    1
