@<TRIPOS>MOLECULE
*****
 48 50 0 0 0
SMALL
GASTEIGER

@<TRIPOS>ATOM
      1 O           2.6159    1.7852   -2.9296 O.2     1  UNL1       -0.2721
      2 C           2.6109    1.2179   -1.8394 C.2     1  UNL1        0.2509
      3 C           3.8690    0.5820   -1.2474 C.3     1  UNL1        0.1651
      4 O           3.5278   -0.3061   -0.1830 O.3     1  UNL1       -0.4828
      5 C           4.5656   -0.9052    0.4775 C.ar    1  UNL1        0.1212
      6 C           4.1821   -1.7225    1.5447 C.ar    1  UNL1       -0.0199
      7 C           5.1408   -2.3929    2.3076 C.ar    1  UNL1       -0.0583
      8 C           6.4930   -2.2504    2.0046 C.ar    1  UNL1       -0.0615
      9 C           6.8831   -1.4400    0.9394 C.ar    1  UNL1       -0.0583
     10 C           5.9224   -0.7677    0.1757 C.ar    1  UNL1       -0.0199
     11 N           1.4990    1.1437   -1.0219 N.am    1  UNL1       -0.3096
     12 C           0.1838    1.6001   -1.4509 C.3     1  UNL1        0.0255
     13 C          -0.4822    0.5612   -2.3620 C.3     1  UNL1       -0.0216
     14 C          -2.0009    0.6542   -2.2626 C.3     1  UNL1        0.0009
     15 N          -2.4781    0.3263   -0.9112 N.3     1  UNL1       -0.2980
     16 C          -3.8713    0.7657   -0.7305 C.3     1  UNL1        0.0240
     17 C          -4.5650    0.0826    0.4307 C.ar    1  UNL1       -0.0334
     18 C          -5.0396    0.8297    1.5177 C.ar    1  UNL1       -0.0573
     19 C          -5.6874    0.1967    2.5805 C.ar    1  UNL1       -0.0615
     20 C          -5.8744   -1.1850    2.5642 C.ar    1  UNL1       -0.0617
     21 C          -5.4110   -1.9386    1.4879 C.ar    1  UNL1       -0.0615
     22 C          -4.7585   -1.3091    0.4278 C.ar    1  UNL1       -0.0573
     23 C          -1.5835    0.7855    0.1606 C.3     1  UNL1        0.0009
     24 C          -0.6900    1.9544   -0.2439 C.3     1  UNL1       -0.0216
     25 H           4.3663    0.0310   -2.0526 H       1  UNL1        0.0795
     26 H           4.4956    1.4017   -0.8789 H       1  UNL1        0.0795
     27 H           3.1280   -1.8390    1.7858 H       1  UNL1        0.0654
     28 H           4.8307   -3.0248    3.1358 H       1  UNL1        0.0619
     29 H           7.2422   -2.7712    2.5958 H       1  UNL1        0.0618
     30 H           7.9389   -1.3300    0.7008 H       1  UNL1        0.0619
     31 H           6.2712   -0.1499   -0.6461 H       1  UNL1        0.0654
     32 H           1.5606    0.4686   -0.2620 H       1  UNL1        0.1491
     33 H           0.3419    2.5201   -2.0281 H       1  UNL1        0.0499
     34 H          -0.1627    0.7191   -3.3991 H       1  UNL1        0.0295
     35 H          -0.1606   -0.4553   -2.0955 H       1  UNL1        0.0295
     36 H          -2.4500   -0.0453   -2.9770 H       1  UNL1        0.0427
     37 H          -2.3143    1.6642   -2.5597 H       1  UNL1        0.0427
     38 H          -4.4611    0.5238   -1.6257 H       1  UNL1        0.0476
     39 H          -3.9186    1.8568   -0.6228 H       1  UNL1        0.0476
     40 H          -4.9025    1.9089    1.5453 H       1  UNL1        0.0621
     41 H          -6.0482    0.7835    3.4203 H       1  UNL1        0.0618
     42 H          -6.3807   -1.6770    3.3903 H       1  UNL1        0.0618
     43 H          -5.5596   -3.0164    1.4731 H       1  UNL1        0.0618
     44 H          -4.3940   -1.9059   -0.4048 H       1  UNL1        0.0621
     45 H          -0.9451   -0.0613    0.4435 H       1  UNL1        0.0427
     46 H          -2.1289    1.0528    1.0711 H       1  UNL1        0.0427
     47 H          -0.0736    2.2677    0.6051 H       1  UNL1        0.0295
     48 H          -1.3272    2.8103   -0.4961 H       1  UNL1        0.0295
@<TRIPOS>BOND
     1     1     2    2
     2     2     3    1
     3     3     4    1
     4     4     5    1
     5     5     6   ar
     6     6     7   ar
     7     7     8   ar
     8     8     9   ar
     9     9    10   ar
    10     2    11   am
    11    11    12    1
    12    12    13    1
    13    13    14    1
    14    14    15    1
    15    15    16    1
    16    16    17    1
    17    17    18   ar
    18    18    19   ar
    19    19    20   ar
    20    20    21   ar
    21    21    22   ar
    22    15    23    1
    23    23    24    1
    24    10     5   ar
    25    24    12    1
    26    22    17   ar
    27     3    25    1
    28     3    26    1
    29     6    27    1
    30     7    28    1
    31     8    29    1
    32     9    30    1
    33    10    31    1
    34    11    32    1
    35    12    33    1
    36    13    34    1
    37    13    35    1
    38    14    36    1
    39    14    37    1
    40    16    38    1
    41    16    39    1
    42    18    40    1
    43    19    41    1
    44    20    42    1
    45    21    43    1
    46    22    44    1
    47    23    45    1
    48    23    46    1
    49    24    47    1
    50    24    48    1
