@<TRIPOS>MOLECULE
*****
 37 38 0 0 0
SMALL
GASTEIGER

@<TRIPOS>ATOM
      1 O          -0.2506   -0.5251    2.9787 O.2     1  UNL1       -0.2721
      2 C          -0.8265   -0.7784    1.9230 C.2     1  UNL1        0.2507
      3 C          -2.2225   -0.2430    1.6057 C.3     1  UNL1        0.1651
      4 O          -2.4694   -0.2949    0.2028 O.3     1  UNL1       -0.4828
      5 C          -3.6783    0.1739   -0.2308 C.ar    1  UNL1        0.1212
      6 C          -4.7075    0.6630    0.5751 C.ar    1  UNL1       -0.0199
      7 C          -5.8990    1.1115   -0.0040 C.ar    1  UNL1       -0.0583
      8 C          -6.0666    1.0728   -1.3872 C.ar    1  UNL1       -0.0615
      9 C          -5.0428    0.5853   -2.1953 C.ar    1  UNL1       -0.0583
     10 C          -3.8540    0.1377   -1.6169 C.ar    1  UNL1       -0.0199
     11 N          -0.2921   -1.5931    0.9486 N.am    1  UNL1       -0.3117
     12 C           1.0760   -2.0702    1.0156 C.3     1  UNL1        0.0207
     13 C           2.1059   -0.9973    0.6498 C.3     1  UNL1        0.0097
     14 S           1.9000   -0.4541   -1.0858 S.3     1  UNL1       -0.1514
     15 C           2.9513    1.0330   -1.0618 C.3     1  UNL1        0.0518
     16 C           4.3769    0.7286   -0.7865 C.ar    1  UNL1        0.1146
     17 C           5.1758    0.8632    0.3315 C.ar    1  UNL1       -0.0199
     18 C           6.4634    0.4063   -0.0393 C.ar    1  UNL1       -0.0236
     19 C           6.3714    0.0308   -1.3585 C.ar    1  UNL1        0.0921
     20 O           5.1113    0.2282   -1.8225 O.2     1  UNL1       -0.4670
     21 H          -2.2579    0.7955    1.9544 H       1  UNL1        0.0795
     22 H          -2.9401   -0.8688    2.1481 H       1  UNL1        0.0795
     23 H          -4.6201    0.7101    1.6554 H       1  UNL1        0.0654
     24 H          -6.6983    1.4918    0.6273 H       1  UNL1        0.0619
     25 H          -6.9938    1.4222   -1.8340 H       1  UNL1        0.0618
     26 H          -5.1673    0.5529   -3.2744 H       1  UNL1        0.0619
     27 H          -3.0576   -0.2406   -2.2532 H       1  UNL1        0.0654
     28 H          -0.7272   -1.5288    0.0316 H       1  UNL1        0.1488
     29 H           1.2674   -2.4171    2.0374 H       1  UNL1        0.0470
     30 H           1.1547   -2.9367    0.3500 H       1  UNL1        0.0470
     31 H           3.1112   -1.4110    0.7735 H       1  UNL1        0.0392
     32 H           1.9983   -0.1302    1.3093 H       1  UNL1        0.0392
     33 H           2.8635    1.5199   -2.0390 H       1  UNL1        0.0456
     34 H           2.5549    1.7346   -0.3203 H       1  UNL1        0.0456
     35 H           4.8652    1.2424    1.2954 H       1  UNL1        0.0652
     36 H           7.3504    0.3583    0.5763 H       1  UNL1        0.0649
     37 H           7.0739   -0.3729   -2.0743 H       1  UNL1        0.1029
@<TRIPOS>BOND
     1     1     2    2
     2     2     3    1
     3     3     4    1
     4     4     5    1
     5     5     6   ar
     6     6     7   ar
     7     7     8   ar
     8     8     9   ar
     9     9    10   ar
    10     2    11   am
    11    11    12    1
    12    12    13    1
    13    13    14    1
    14    14    15    1
    15    15    16    1
    16    16    17   ar
    17    17    18   ar
    18    18    19   ar
    19    19    20   ar
    20    10     5   ar
    21    20    16   ar
    22     3    21    1
    23     3    22    1
    24     6    23    1
    25     7    24    1
    26     8    25    1
    27     9    26    1
    28    10    27    1
    29    11    28    1
    30    12    29    1
    31    12    30    1
    32    13    31    1
    33    13    32    1
    34    15    33    1
    35    15    34    1
    36    17    35    1
    37    18    36    1
    38    19    37    1
