@<TRIPOS>MOLECULE
*****
 29 30 0 0 0
SMALL
GASTEIGER

@<TRIPOS>ATOM
      1 O           1.7308   -0.2535   -2.3635 O.2     1  UNL1       -0.2717
      2 C           1.0024   -0.1151   -1.3835 C.2     1  UNL1        0.2559
      3 C          -0.5044    0.0949   -1.5606 C.3     1  UNL1        0.1656
      4 O          -1.1583    0.2323   -0.3045 O.3     1  UNL1       -0.4813
      5 C          -2.5144    0.4268   -0.3049 C.ar    1  UNL1        0.1394
      6 C          -3.3079    0.5007   -1.4547 C.ar    1  UNL1       -0.0185
      7 C          -4.6886    0.7023   -1.3502 C.ar    1  UNL1       -0.0582
      8 C          -5.2894    0.8319   -0.0999 C.ar    1  UNL1       -0.0602
      9 C          -4.5103    0.7602    1.0529 C.ar    1  UNL1       -0.0398
     10 C          -3.1312    0.5588    0.9507 C.ar    1  UNL1        0.0825
     11 CL         -2.2110    0.4776    2.4137 Cl      1  UNL1       -0.0798
     12 N           1.4017   -0.1268   -0.0690 N.am    1  UNL1       -0.2676
     13 C           2.6793   -0.2918    0.4570 C.ar    1  UNL1        0.1250
     14 C           3.8212   -0.4822   -0.3120 C.ar    1  UNL1       -0.0201
     15 C           5.0532   -0.6367    0.3290 C.ar    1  UNL1       -0.0387
     16 C           5.1071   -0.5963    1.7144 C.ar    1  UNL1        0.0592
     17 CL          6.5974   -0.7813    2.5421 Cl      1  UNL1       -0.0820
     18 C           3.9239   -0.4027    2.4052 C.ar    1  UNL1        0.0480
     19 N           2.7162   -0.2502    1.8069 N.ar    1  UNL1       -0.2387
     20 H          -0.8890   -0.7826   -2.0929 H       1  UNL1        0.0795
     21 H          -0.6323    1.0069   -2.1550 H       1  UNL1        0.0795
     22 H          -2.8886    0.4060   -2.4514 H       1  UNL1        0.0654
     23 H          -5.2970    0.7583   -2.2505 H       1  UNL1        0.0619
     24 H          -6.3627    0.9885   -0.0232 H       1  UNL1        0.0618
     25 H          -4.9804    0.8614    2.0277 H       1  UNL1        0.0633
     26 H           0.6853    0.0006    0.6399 H       1  UNL1        0.1563
     27 H           3.7889   -0.5151   -1.3945 H       1  UNL1        0.0652
     28 H           5.9536   -0.7862   -0.2597 H       1  UNL1        0.0634
     29 H           3.9046   -0.3622    3.4905 H       1  UNL1        0.0845
@<TRIPOS>BOND
     1     1     2    2
     2     2     3    1
     3     3     4    1
     4     4     5    1
     5     5     6   ar
     6     6     7   ar
     7     7     8   ar
     8     8     9   ar
     9     9    10   ar
    10    10    11    1
    11     2    12   am
    12    12    13    1
    13    13    14   ar
    14    14    15   ar
    15    15    16   ar
    16    16    17    1
    17    16    18   ar
    18    18    19   ar
    19    10     5   ar
    20    19    13   ar
    21     3    20    1
    22     3    21    1
    23     6    22    1
    24     7    23    1
    25     8    24    1
    26     9    25    1
    27    12    26    1
    28    14    27    1
    29    15    28    1
    30    18    29    1
