@<TRIPOS>MOLECULE
*****
 31 32 0 0 0
SMALL
GASTEIGER

@<TRIPOS>ATOM
      1 O           1.5426    1.1866   -2.4049 O.2     1  UNL1       -0.2717
      2 C           0.8774    0.8074   -1.4456 C.2     1  UNL1        0.2548
      3 C          -0.6472    0.9462   -1.4473 C.3     1  UNL1        0.1656
      4 O          -1.2409   -0.0442   -0.6082 O.3     1  UNL1       -0.4791
      5 C          -2.6055    0.0023   -0.4783 C.ar    1  UNL1        0.1624
      6 C          -3.4503    0.9748   -1.0145 C.ar    1  UNL1       -0.0163
      7 C          -4.8294    0.9101   -0.7811 C.ar    1  UNL1       -0.0581
      8 C          -5.3700   -0.1225   -0.0133 C.ar    1  UNL1       -0.0581
      9 C          -4.5349   -1.1002    0.5210 C.ar    1  UNL1       -0.0165
     10 C          -3.1677   -1.0322    0.2806 C.ar    1  UNL1        0.1585
     11 O          -2.3773   -2.0205    0.8020 O.3     1  UNL1       -0.5033
     12 N           1.3629    0.2845   -0.2585 N.am    1  UNL1       -0.2827
     13 C           2.7017    0.0440    0.1009 C.ar    1  UNL1        0.0336
     14 C           2.9333   -0.5050    1.3697 C.ar    1  UNL1       -0.0391
     15 C           4.2351   -0.7747    1.8036 C.ar    1  UNL1       -0.0416
     16 C           5.3128   -0.4957    0.9686 C.ar    1  UNL1        0.0411
     17 CL          6.9151   -0.8258    1.4988 Cl      1  UNL1       -0.0835
     18 C           5.0971    0.0495   -0.2936 C.ar    1  UNL1       -0.0416
     19 C           3.7931    0.3188   -0.7262 C.ar    1  UNL1       -0.0391
     20 H          -0.9938    0.8141   -2.4786 H       1  UNL1        0.0795
     21 H          -0.8708    1.9548   -1.0809 H       1  UNL1        0.0795
     22 H          -3.0791    1.7980   -1.6157 H       1  UNL1        0.0655
     23 H          -5.4855    1.6702   -1.1996 H       1  UNL1        0.0619
     24 H          -6.4414   -0.1669    0.1650 H       1  UNL1        0.0619
     25 H          -4.9448   -1.9122    1.1141 H       1  UNL1        0.0655
     26 H          -1.4934   -1.8752    0.4189 H       1  UNL1        0.2923
     27 H           0.6533    0.0315    0.4215 H       1  UNL1        0.1549
     28 H           2.1071   -0.7303    2.0396 H       1  UNL1        0.0636
     29 H           4.3987   -1.2002    2.7900 H       1  UNL1        0.0633
     30 H           5.9345    0.2695   -0.9506 H       1  UNL1        0.0633
     31 H           3.6673    0.7435   -1.7174 H       1  UNL1        0.0636
@<TRIPOS>BOND
     1     1     2    2
     2     2     3    1
     3     3     4    1
     4     4     5    1
     5     5     6   ar
     6     6     7   ar
     7     7     8   ar
     8     8     9   ar
     9     9    10   ar
    10    10    11    1
    11     2    12   am
    12    12    13    1
    13    13    14   ar
    14    14    15   ar
    15    15    16   ar
    16    16    17    1
    17    16    18   ar
    18    18    19   ar
    19    10     5   ar
    20    19    13   ar
    21     3    20    1
    22     3    21    1
    23     6    22    1
    24     7    23    1
    25     8    24    1
    26     9    25    1
    27    11    26    1
    28    12    27    1
    29    14    28    1
    30    15    29    1
    31    18    30    1
    32    19    31    1
