@<TRIPOS>MOLECULE
*****
 40 42 0 0 0
SMALL
GASTEIGER

@<TRIPOS>ATOM
      1 O          -0.6941   -0.4935   -3.2996 O.2     1  UNL1       -0.2721
      2 C          -0.2269    0.4251   -2.6310 C.2     1  UNL1        0.2507
      3 C           1.1409    1.0436   -2.9239 C.3     1  UNL1        0.1668
      4 O           2.1751    0.5282   -2.0969 O.3     1  UNL1       -0.4664
      5 C           2.3773    1.1858   -0.8973 C.ar    1  UNL1        0.2260
      6 N           1.4860    2.1203   -0.5095 N.ar    1  UNL1       -0.2009
      7 C           1.7620    2.7142    0.6584 C.ar    1  UNL1        0.1204
      8 N           2.7989    2.4467    1.4620 N.ar    1  UNL1       -0.2352
      9 C           3.6541    1.4979    1.0574 C.ar    1  UNL1        0.0778
     10 C           4.7449    1.1805    1.8579 C.ar    1  UNL1       -0.0355
     11 C           5.6719    0.2004    1.4889 C.ar    1  UNL1       -0.0597
     12 C           5.5144   -0.4851    0.2911 C.ar    1  UNL1       -0.0609
     13 C           4.4308   -0.1851   -0.5289 C.ar    1  UNL1       -0.0475
     14 C           3.4957    0.8081   -0.1491 C.ar    1  UNL1        0.0619
     15 N          -0.8854    0.9940   -1.5627 N.am    1  UNL1       -0.3122
     16 C          -2.1269    0.4498   -1.0508 C.3     1  UNL1        0.0157
     17 C          -1.8955   -0.7862   -0.1792 C.3     1  UNL1       -0.0121
     18 C          -3.1867   -1.3186    0.3891 C.ar    1  UNL1       -0.0459
     19 C          -3.9588   -2.2288   -0.3460 C.ar    1  UNL1       -0.0585
     20 C          -5.1630   -2.7108    0.1683 C.ar    1  UNL1       -0.0615
     21 C          -5.6095   -2.2824    1.4176 C.ar    1  UNL1       -0.0617
     22 C          -4.8514   -1.3735    2.1538 C.ar    1  UNL1       -0.0615
     23 C          -3.6447   -0.8925    1.6429 C.ar    1  UNL1       -0.0585
     24 H           1.3956    0.7734   -3.9553 H       1  UNL1        0.0795
     25 H           1.0854    2.1396   -2.9130 H       1  UNL1        0.0795
     26 H           1.0770    3.4869    0.9920 H       1  UNL1        0.1048
     27 H           4.8790    1.7121    2.7981 H       1  UNL1        0.0639
     28 H           6.5142   -0.0238    2.1390 H       1  UNL1        0.0618
     29 H           6.2290   -1.2496   -0.0020 H       1  UNL1        0.0618
     30 H           4.3079   -0.7219   -1.4686 H       1  UNL1        0.0626
     31 H          -0.3194    1.5793   -0.9507 H       1  UNL1        0.1488
     32 H          -2.6085    1.2466   -0.4737 H       1  UNL1        0.0465
     33 H          -2.7791    0.2079   -1.8980 H       1  UNL1        0.0465
     34 H          -1.3959   -1.5765   -0.7545 H       1  UNL1        0.0328
     35 H          -1.2052   -0.5425    0.6395 H       1  UNL1        0.0328
     36 H          -3.6234   -2.5681   -1.3249 H       1  UNL1        0.0620
     37 H          -5.7532   -3.4193   -0.4077 H       1  UNL1        0.0618
     38 H          -6.5479   -2.6576    1.8167 H       1  UNL1        0.0618
     39 H          -5.2004   -1.0394    3.1278 H       1  UNL1        0.0618
     40 H          -3.0641   -0.1849    2.2302 H       1  UNL1        0.0620
@<TRIPOS>BOND
     1     1     2    2
     2     2     3    1
     3     3     4    1
     4     4     5    1
     5     5     6   ar
     6     6     7   ar
     7     7     8   ar
     8     8     9   ar
     9     9    10   ar
    10    10    11   ar
    11    11    12   ar
    12    12    13   ar
    13    13    14   ar
    14     2    15   am
    15    15    16    1
    16    16    17    1
    17    17    18    1
    18    18    19   ar
    19    19    20   ar
    20    20    21   ar
    21    21    22   ar
    22    22    23   ar
    23    14     5   ar
    24    23    18   ar
    25    14     9   ar
    26     3    24    1
    27     3    25    1
    28     7    26    1
    29    10    27    1
    30    11    28    1
    31    12    29    1
    32    13    30    1
    33    15    31    1
    34    16    32    1
    35    16    33    1
    36    17    34    1
    37    17    35    1
    38    19    36    1
    39    20    37    1
    40    21    38    1
    41    22    39    1
    42    23    40    1
