@<TRIPOS>MOLECULE
*****
 42 44 0 0 0
SMALL
GASTEIGER

@<TRIPOS>ATOM
      1 O           0.3773   -1.0457    2.2405 O.2     1  UNL1       -0.2738
      2 C          -0.2074   -0.1176    1.6732 C.2     1  UNL1        0.2370
      3 C           0.4545    1.2263    1.6418 C.3     1  UNL1        0.1422
      4 S           1.6700    1.2899    0.3596 S.O2    1  UNL1       -0.0185
      5 O           2.4297    2.5046    0.6094 O.2     1  UNL1       -0.1736
      6 O           0.9725    1.1197   -0.9038 O.2     1  UNL1       -0.1736
      7 C           2.7305   -0.1313    0.6512 C.3     1  UNL1        0.0912
      8 C           3.9181   -0.0659   -0.2748 C.ar    1  UNL1       -0.0265
      9 C           5.1080    0.5543    0.1332 C.ar    1  UNL1       -0.0570
     10 C           6.2063    0.6124   -0.7256 C.ar    1  UNL1       -0.0615
     11 C           6.1266    0.0548   -1.9998 C.ar    1  UNL1       -0.0617
     12 C           4.9477   -0.5585   -2.4189 C.ar    1  UNL1       -0.0615
     13 C           3.8476   -0.6176   -1.5625 C.ar    1  UNL1       -0.0570
     14 N          -1.4489   -0.2844    1.0805 N.am    1  UNL1       -0.2955
     15 C          -2.1568   -1.5481    1.2862 C.3     1  UNL1        0.0191
     16 C          -2.8534   -2.0186    0.0130 C.3     1  UNL1       -0.0115
     17 C          -3.7410   -0.9394   -0.5460 C.ar    1  UNL1       -0.0412
     18 C          -4.8432   -1.2748   -1.3435 C.ar    1  UNL1       -0.0582
     19 C          -5.6478   -0.2759   -1.8889 C.ar    1  UNL1       -0.0615
     20 C          -5.3519    1.0633   -1.6496 C.ar    1  UNL1       -0.0614
     21 C          -4.2487    1.4054   -0.8667 C.ar    1  UNL1       -0.0568
     22 C          -3.4300    0.4105   -0.3108 C.ar    1  UNL1       -0.0269
     23 C          -2.2370    0.8195    0.5209 C.3     1  UNL1        0.0400
     24 H          -0.2400    2.0551    1.5056 H       1  UNL1        0.0596
     25 H           0.9648    1.3898    2.5975 H       1  UNL1        0.0596
     26 H           2.1584   -1.0434    0.4627 H       1  UNL1        0.0549
     27 H           3.0477   -0.1117    1.6981 H       1  UNL1        0.0549
     28 H           5.1846    1.0096    1.1186 H       1  UNL1        0.0621
     29 H           7.1221    1.1004   -0.4028 H       1  UNL1        0.0618
     30 H           6.9804    0.1052   -2.6704 H       1  UNL1        0.0618
     31 H           4.8827   -0.9859   -3.4161 H       1  UNL1        0.0618
     32 H           2.9313   -1.0898   -1.9125 H       1  UNL1        0.0621
     33 H          -1.4718   -2.3319    1.6271 H       1  UNL1        0.0468
     34 H          -2.8847   -1.3812    2.0913 H       1  UNL1        0.0468
     35 H          -2.1085   -2.2804   -0.7485 H       1  UNL1        0.0328
     36 H          -3.4397   -2.9169    0.2386 H       1  UNL1        0.0328
     37 H          -5.0783   -2.3173   -1.5469 H       1  UNL1        0.0620
     38 H          -6.5023   -0.5427   -2.5056 H       1  UNL1        0.0618
     39 H          -5.9766    1.8425   -2.0788 H       1  UNL1        0.0618
     40 H          -4.0255    2.4572   -0.6998 H       1  UNL1        0.0621
     41 H          -2.5862    1.4174    1.3713 H       1  UNL1        0.0514
     42 H          -1.5809    1.4412   -0.0953 H       1  UNL1        0.0514
@<TRIPOS>BOND
     1     1     2    2
     2     2     3    1
     3     3     4    1
     4     4     5    2
     5     4     6    2
     6     4     7    1
     7     7     8    1
     8     8     9   ar
     9     9    10   ar
    10    10    11   ar
    11    11    12   ar
    12    12    13   ar
    13     2    14   am
    14    14    15    1
    15    15    16    1
    16    16    17    1
    17    17    18   ar
    18    18    19   ar
    19    19    20   ar
    20    20    21   ar
    21    21    22   ar
    22    22    23    1
    23    13     8   ar
    24    23    14    1
    25    22    17   ar
    26     3    24    1
    27     3    25    1
    28     7    26    1
    29     7    27    1
    30     9    28    1
    31    10    29    1
    32    11    30    1
    33    12    31    1
    34    13    32    1
    35    15    33    1
    36    15    34    1
    37    16    35    1
    38    16    36    1
    39    18    37    1
    40    19    38    1
    41    20    39    1
    42    21    40    1
    43    23    41    1
    44    23    42    1
