@<TRIPOS>MOLECULE
*****
 37 39 0 0 0
SMALL
GASTEIGER

@<TRIPOS>ATOM
      1 O           0.6678   -2.3810   -0.6690 O.2     1  UNL1       -0.2736
      2 C           0.2225   -1.2357   -0.6305 C.2     1  UNL1        0.2397
      3 C          -1.2611   -1.0275   -0.7612 C.3     1  UNL1        0.1424
      4 S          -1.6169    0.2192   -1.9643 S.O2    1  UNL1       -0.0185
      5 O          -1.1151   -0.2345   -3.2479 O.2     1  UNL1       -0.1736
      6 O          -1.1443    1.4829   -1.4170 O.2     1  UNL1       -0.1736
      7 C          -3.4041    0.2614   -2.0888 C.3     1  UNL1        0.0912
      8 C          -4.0407    0.3566   -0.7294 C.ar    1  UNL1       -0.0265
      9 C          -4.0176    1.5586   -0.0072 C.ar    1  UNL1       -0.0570
     10 C          -4.5967    1.6351    1.2599 C.ar    1  UNL1       -0.0615
     11 C          -5.2116    0.5156    1.8156 C.ar    1  UNL1       -0.0617
     12 C          -5.2531   -0.6807    1.1031 C.ar    1  UNL1       -0.0615
     13 C          -4.6744   -0.7608   -0.1642 C.ar    1  UNL1       -0.0570
     14 N           0.9402   -0.0895   -0.3655 N.am    1  UNL1       -0.2633
     15 C           2.2892   -0.0992   -0.1410 C.ar    1  UNL1        0.1655
     16 N           3.1040   -1.1127   -0.0330 N.ar    1  UNL1       -0.2246
     17 C           4.3876   -0.6489    0.1961 C.ar    1  UNL1        0.0803
     18 C           5.5387   -1.4458    0.3590 C.ar    1  UNL1       -0.0351
     19 C           6.7784   -0.8395    0.5874 C.ar    1  UNL1       -0.0597
     20 C           6.8834    0.5465    0.6555 C.ar    1  UNL1       -0.0606
     21 C           5.7571    1.3605    0.4977 C.ar    1  UNL1       -0.0458
     22 C           4.5174    0.7408    0.2684 C.ar    1  UNL1        0.0408
     23 S           2.9659    1.4552    0.0365 S.2     1  UNL1       -0.0520
     24 H          -1.6585   -0.7270    0.2107 H       1  UNL1        0.0596
     25 H          -1.7357   -1.9549   -1.0939 H       1  UNL1        0.0596
     26 H          -3.7155   -0.6472   -2.6147 H       1  UNL1        0.0549
     27 H          -3.6752    1.1218   -2.7090 H       1  UNL1        0.0549
     28 H          -3.5448    2.4481   -0.4228 H       1  UNL1        0.0621
     29 H          -4.5706    2.5709    1.8133 H       1  UNL1        0.0618
     30 H          -5.6648    0.5778    2.8019 H       1  UNL1        0.0618
     31 H          -5.7421   -1.5509    1.5349 H       1  UNL1        0.0618
     32 H          -4.7287   -1.7050   -0.7036 H       1  UNL1        0.0621
     33 H           0.5102    0.8293   -0.4371 H       1  UNL1        0.1568
     34 H           5.4499   -2.5264    0.3036 H       1  UNL1        0.0639
     35 H           7.6636   -1.4590    0.7111 H       1  UNL1        0.0618
     36 H           7.8545    1.0044    0.8328 H       1  UNL1        0.0618
     37 H           5.8411    2.4416    0.5500 H       1  UNL1        0.0629
@<TRIPOS>BOND
     1     1     2    2
     2     2     3    1
     3     3     4    1
     4     4     5    2
     5     4     6    2
     6     4     7    1
     7     7     8    1
     8     8     9   ar
     9     9    10   ar
    10    10    11   ar
    11    11    12   ar
    12    12    13   ar
    13     2    14   am
    14    14    15    1
    15    15    16   ar
    16    16    17   ar
    17    17    18   ar
    18    18    19   ar
    19    19    20   ar
    20    20    21   ar
    21    21    22   ar
    22    22    23   ar
    23    13     8   ar
    24    23    15   ar
    25    22    17   ar
    26     3    24    1
    27     3    25    1
    28     7    26    1
    29     7    27    1
    30     9    28    1
    31    10    29    1
    32    11    30    1
    33    12    31    1
    34    13    32    1
    35    14    33    1
    36    18    34    1
    37    19    35    1
    38    20    36    1
    39    21    37    1
