@<TRIPOS>MOLECULE
*****
 33 35 0 0 0
SMALL
GASTEIGER

@<TRIPOS>ATOM
      1 O           0.7904   -1.2437   -3.1242 O.2     1  UNL1       -0.2746
      2 C           0.7041   -0.1414   -2.5889 C.2     1  UNL1        0.2275
      3 C           1.6259    0.9951   -3.0265 C.3     1  UNL1        0.0770
      4 S           2.0036    2.1752   -1.6933 S.3     1  UNL1       -0.0902
      5 C           2.7648    1.0959   -0.5721 C.2     1  UNL1        0.1257
      6 N           3.4982    0.1015   -0.9352 N.2     1  UNL1       -0.2697
      7 C           3.9094   -0.6501    0.2697 C.3     1  UNL1        0.0508
      8 C           3.8935    0.2648    1.4854 C.3     1  UNL1        0.0198
      9 S           2.5297    1.3857    1.1233 S.3     1  UNL1       -0.0977
     10 N          -0.2316    0.2256   -1.6344 N.am    1  UNL1       -0.2842
     11 C          -1.2220   -0.5768   -1.0099 C.ar    1  UNL1        0.0441
     12 C          -1.4258   -1.9019   -1.3869 C.ar    1  UNL1       -0.0217
     13 C          -2.4075   -2.6291   -0.7466 C.ar    1  UNL1        0.0300
     14 N          -3.1897   -2.1369    0.2308 N.ar    1  UNL1       -0.2549
     15 C          -3.0036   -0.8647    0.6071 C.ar    1  UNL1        0.0727
     16 C          -3.8178   -0.3767    1.6201 C.ar    1  UNL1       -0.0357
     17 C          -3.7078    0.9297    2.0953 C.ar    1  UNL1       -0.0597
     18 C          -2.7585    1.7761    1.5473 C.ar    1  UNL1       -0.0610
     19 C          -1.9281    1.3112    0.5262 C.ar    1  UNL1       -0.0508
     20 C          -2.0289   -0.0177    0.0271 C.ar    1  UNL1        0.0216
     21 H           1.1297    1.5350   -3.8391 H       1  UNL1        0.0475
     22 H           2.5576    0.5735   -3.4164 H       1  UNL1        0.0475
     23 H           3.2284   -1.4995    0.4068 H       1  UNL1        0.0517
     24 H           4.9139   -1.0606    0.1217 H       1  UNL1        0.0517
     25 H           4.8207    0.8426    1.5500 H       1  UNL1        0.0398
     26 H           3.7446   -0.2842    2.4185 H       1  UNL1        0.0398
     27 H          -0.1571    1.1841   -1.3201 H       1  UNL1        0.1548
     28 H          -0.8558   -2.3932   -2.1645 H       1  UNL1        0.0651
     29 H          -2.5973   -3.6646   -1.0153 H       1  UNL1        0.0830
     30 H          -4.5634   -1.0390    2.0556 H       1  UNL1        0.0639
     31 H          -4.3621    1.2757    2.8909 H       1  UNL1        0.0618
     32 H          -2.6595    2.7957    1.9117 H       1  UNL1        0.0618
     33 H          -1.1978    2.0125    0.1358 H       1  UNL1        0.0625
@<TRIPOS>BOND
     1     1     2    2
     2     2     3    1
     3     3     4    1
     4     4     5    1
     5     5     6    2
     6     6     7    1
     7     7     8    1
     8     8     9    1
     9     2    10   am
    10    10    11    1
    11    11    12   ar
    12    12    13   ar
    13    13    14   ar
    14    14    15   ar
    15    15    16   ar
    16    16    17   ar
    17    17    18   ar
    18    18    19   ar
    19    19    20   ar
    20     9     5    1
    21    20    11   ar
    22    20    15   ar
    23     3    21    1
    24     3    22    1
    25     7    23    1
    26     7    24    1
    27     8    25    1
    28     8    26    1
    29    10    27    1
    30    12    28    1
    31    13    29    1
    32    16    30    1
    33    17    31    1
    34    18    32    1
    35    19    33    1
