@<TRIPOS>MOLECULE
*****
 32 33 0 0 0
SMALL
GASTEIGER

@<TRIPOS>ATOM
      1 O           0.6540    1.7804    0.8624 O.2     1  UNL1       -0.2732
      2 C           0.0851    0.8048    0.3738 C.2     1  UNL1        0.2424
      3 C          -1.4234    0.7954    0.1805 C.3     1  UNL1        0.0764
      4 S          -2.1588   -0.7839    0.7287 S.3     1  UNL1       -0.1158
      5 C          -3.8561   -0.5019    0.2638 C.ar    1  UNL1        0.0084
      6 C          -4.4691   -1.3750   -0.6414 C.ar    1  UNL1       -0.0469
      7 C          -5.8019   -1.1823   -1.0164 C.ar    1  UNL1       -0.0423
      8 C          -6.5257   -0.1208   -0.4781 C.ar    1  UNL1        0.0410
      9 CL         -8.1656    0.1171   -0.9384 Cl      1  UNL1       -0.0835
     10 C          -5.9297    0.7459    0.4355 C.ar    1  UNL1       -0.0423
     11 C          -4.5965    0.5525    0.8095 C.ar    1  UNL1       -0.0469
     12 N           0.7166   -0.3319   -0.1316 N.am    1  UNL1       -0.2063
     13 N           2.0500   -0.6158    0.0288 N.2     1  UNL1       -0.1876
     14 C           2.8924    0.3601   -0.1050 C.2     1  UNL1        0.0542
     15 C           4.3367    0.1616    0.0956 C.ar    1  UNL1        0.0126
     16 C           4.8754   -1.0782    0.4354 C.ar    1  UNL1       -0.0502
     17 C           6.2528   -1.1942    0.6064 C.ar    1  UNL1       -0.0430
     18 C           7.0365   -0.0635    0.4294 C.ar    1  UNL1        0.0276
     19 N           6.5422    1.1513    0.1002 N.ar    1  UNL1       -0.2626
     20 C           5.1989    1.2379   -0.0565 C.ar    1  UNL1        0.0362
     21 H          -1.8477    1.6163    0.7664 H       1  UNL1        0.0475
     22 H          -1.6371    0.9651   -0.8797 H       1  UNL1        0.0475
     23 H          -3.9174   -2.2125   -1.0630 H       1  UNL1        0.0629
     24 H          -6.2673   -1.8646   -1.7229 H       1  UNL1        0.0632
     25 H          -6.4966    1.5677    0.8654 H       1  UNL1        0.0632
     26 H          -4.1532    1.2252    1.5399 H       1  UNL1        0.0629
     27 H           0.1343   -1.1672   -0.1754 H       1  UNL1        0.1772
     28 H           2.5816    1.3770   -0.4015 H       1  UNL1        0.0852
     29 H           4.2341   -1.9452    0.5680 H       1  UNL1        0.0625
     30 H           6.7039   -2.1438    0.8722 H       1  UNL1        0.0633
     31 H           8.1154   -0.1062    0.5523 H       1  UNL1        0.0829
     32 H           4.8361    2.2290   -0.3138 H       1  UNL1        0.0836
@<TRIPOS>BOND
     1     1     2    2
     2     2     3    1
     3     3     4    1
     4     4     5    1
     5     5     6   ar
     6     6     7   ar
     7     7     8   ar
     8     8     9    1
     9     8    10   ar
    10    10    11   ar
    11     2    12   am
    12    12    13    1
    13    13    14    2
    14    14    15    1
    15    15    16   ar
    16    16    17   ar
    17    17    18   ar
    18    18    19   ar
    19    19    20   ar
    20    11     5   ar
    21    20    15   ar
    22     3    21    1
    23     3    22    1
    24     6    23    1
    25     7    24    1
    26    10    25    1
    27    11    26    1
    28    12    27    1
    29    14    28    1
    30    16    29    1
    31    17    30    1
    32    18    31    1
    33    20    32    1
