@<TRIPOS>MOLECULE
*****
 38 41 0 0 0
SMALL
GASTEIGER

@<TRIPOS>ATOM
      1 O          -0.0104    1.1370   -3.1992 O.2     1  UNL1       -0.2745
      2 C          -0.2433    0.8131   -2.0385 C.2     1  UNL1        0.2290
      3 C          -1.6737    0.7235   -1.5350 C.3     1  UNL1        0.0794
      4 S          -2.1157   -1.0132   -1.2533 S.3     1  UNL1       -0.0578
      5 C          -3.7481   -0.8165   -0.6859 C.ar    1  UNL1        0.2584
      6 N          -4.2900    0.3549   -0.4087 N.ar    1  UNL1       -0.2033
      7 C          -5.5600    0.0390    0.0026 C.ar    1  UNL1        0.1104
      8 C          -6.6217    0.8484    0.4255 C.ar    1  UNL1       -0.0326
      9 C          -7.8235    0.2226    0.7920 C.ar    1  UNL1       -0.0595
     10 C          -7.9611   -1.1709    0.7382 C.ar    1  UNL1       -0.0582
     11 C          -6.9078   -1.9923    0.3177 C.ar    1  UNL1       -0.0171
     12 C          -5.7372   -1.3334   -0.0362 C.ar    1  UNL1        0.1562
     13 O          -4.5737   -1.8903   -0.4752 O.2     1  UNL1       -0.4307
     14 N           0.6810    0.5249   -1.0563 N.am    1  UNL1       -0.2640
     15 C           2.0462    0.5374   -1.1677 C.ar    1  UNL1        0.1649
     16 N           2.8022    0.1857   -0.1552 N.ar    1  UNL1       -0.2246
     17 C           4.1444    0.2936   -0.5014 C.ar    1  UNL1        0.0802
     18 C           5.1977   -0.0470    0.4531 C.ar    1  UNL1        0.0009
     19 C           4.8843   -0.8363    1.5704 C.ar    1  UNL1       -0.0525
     20 C           5.8656   -1.1823    2.5032 C.ar    1  UNL1       -0.0611
     21 C           7.1746   -0.7394    2.3333 C.ar    1  UNL1       -0.0617
     22 C           7.5016    0.0510    1.2339 C.ar    1  UNL1       -0.0611
     23 C           6.5197    0.3969    0.2997 C.ar    1  UNL1       -0.0525
     24 C           4.3638    0.7212   -1.7973 C.ar    1  UNL1        0.0049
     25 S           2.8659    1.0108   -2.5795 S.2     1  UNL1       -0.0599
     26 H          -1.7606    1.3044   -0.6103 H       1  UNL1        0.0476
     27 H          -2.3377    1.1654   -2.2854 H       1  UNL1        0.0476
     28 H          -6.5137    1.9265    0.4660 H       1  UNL1        0.0640
     29 H          -8.6625    0.8321    1.1232 H       1  UNL1        0.0618
     30 H          -8.9068   -1.6255    1.0289 H       1  UNL1        0.0619
     31 H          -6.9950   -3.0703    0.2688 H       1  UNL1        0.0655
     32 H           0.3623    0.2016   -0.1529 H       1  UNL1        0.1567
     33 H           3.8666   -1.1918    1.7201 H       1  UNL1        0.0624
     34 H           5.6044   -1.7965    3.3610 H       1  UNL1        0.0618
     35 H           7.9383   -1.0069    3.0589 H       1  UNL1        0.0618
     36 H           8.5219    0.4031    1.1037 H       1  UNL1        0.0618
     37 H           6.8087    1.0275   -0.5365 H       1  UNL1        0.0624
     38 H           5.2932    0.8717   -2.3255 H       1  UNL1        0.0716
@<TRIPOS>BOND
     1     1     2    2
     2     2     3    1
     3     3     4    1
     4     4     5    1
     5     5     6   ar
     6     6     7   ar
     7     7     8   ar
     8     8     9   ar
     9     9    10   ar
    10    10    11   ar
    11    11    12   ar
    12    12    13   ar
    13     2    14   am
    14    14    15    1
    15    15    16   ar
    16    16    17   ar
    17    17    18    1
    18    18    19   ar
    19    19    20   ar
    20    20    21   ar
    21    21    22   ar
    22    22    23   ar
    23    17    24   ar
    24    24    25   ar
    25    13     5   ar
    26    25    15   ar
    27    12     7   ar
    28    23    18   ar
    29     3    26    1
    30     3    27    1
    31     8    28    1
    32     9    29    1
    33    10    30    1
    34    11    31    1
    35    14    32    1
    36    19    33    1
    37    20    34    1
    38    21    35    1
    39    22    36    1
    40    23    37    1
    41    24    38    1
