@<TRIPOS>MOLECULE
*****
 33 37 0 0 0
SMALL
GASTEIGER

@<TRIPOS>ATOM
      1 SI         -2.1283   -0.0106   -1.6277 Si      1  UNL1        0.0000
      2 C          -1.0897   -0.2479   -0.0549 C.2     1  UNL1        0.0000
      3 C          -1.8570   -0.3742    1.0496 C.2     1  UNL1        0.0000
      4 C          -3.3019   -0.3069    0.7871 C.ar    1  UNL1        0.0000
      5 C          -4.3109   -0.4094    1.7271 C.ar    1  UNL1        0.0000
      6 N          -5.6264   -0.3282    1.4116 N.ar    1  UNL1        0.0000
      7 C          -5.9372   -0.1402    0.1034 C.ar    1  UNL1        0.0000
      8 C          -5.0038   -0.0250   -0.9177 C.ar    1  UNL1        0.0000
      9 C          -3.6660   -0.1099   -0.5597 C.ar    1  UNL1        0.0000
     10 C           0.3702   -0.2208   -0.0679 C.ar    1  UNL1        0.0000
     11 C           1.1099    0.6534    0.7631 C.ar    1  UNL1        0.0000
     12 C           2.5287    0.7210    0.7978 C.ar    1  UNL1        0.0000
     13 C           3.1780    1.6253    1.6512 C.ar    1  UNL1        0.0000
     14 C           4.5746    1.7054    1.6978 C.ar    1  UNL1        0.0000
     15 C           5.3567    0.8818    0.8911 C.ar    1  UNL1        0.0000
     16 C           4.7468   -0.0280    0.0316 C.ar    1  UNL1        0.0000
     17 C           3.3392   -0.1134   -0.0203 C.ar    1  UNL1        0.0000
     18 C           2.6484   -1.0304   -0.8832 C.ar    1  UNL1        0.0000
     19 N           3.2144   -1.9078   -1.7328 N.ar    1  UNL1        0.0000
     20 S           1.9788   -2.7274   -2.4694 S.2     1  UNL1        0.0000
     21 N           0.6665   -2.0067   -1.7638 N.ar    1  UNL1        0.0000
     22 C           1.1355   -1.0835   -0.9050 C.ar    1  UNL1        0.0000
     23 H          -1.9497    1.3426   -2.2151 H       1  UNL1        0.0000
     24 H          -2.0761   -1.1350   -2.5946 H       1  UNL1        0.0000
     25 H          -1.4817   -0.5077    2.0562 H       1  UNL1        0.0000
     26 H          -4.0977   -0.5615    2.7801 H       1  UNL1        0.0000
     27 H          -7.0018   -0.0834   -0.1084 H       1  UNL1        0.0000
     28 H          -5.3227    0.1223   -1.9430 H       1  UNL1        0.0000
     29 H           0.5483    1.3266    1.4148 H       1  UNL1        0.0000
     30 H           2.6011    2.2855    2.2968 H       1  UNL1        0.0000
     31 H           5.0525    2.4156    2.3688 H       1  UNL1        0.0000
     32 H           6.4410    0.9484    0.9319 H       1  UNL1        0.0000
     33 H           5.3603   -0.6703   -0.5967 H       1  UNL1        0.0000
@<TRIPOS>BOND
     1     1     2    1
     2     2     3    2
     3     3     4    1
     4     4     5   ar
     5     5     6   ar
     6     6     7   ar
     7     7     8   ar
     8     8     9   ar
     9     2    10    1
    10    10    11   ar
    11    11    12   ar
    12    12    13   ar
    13    13    14   ar
    14    14    15   ar
    15    15    16   ar
    16    16    17   ar
    17    17    18   ar
    18    18    19   ar
    19    19    20   ar
    20    20    21   ar
    21    21    22   ar
    22     9     1    1
    23    22    10   ar
    24     9     4   ar
    25    17    12   ar
    26    22    18   ar
    27     1    23    1
    28     1    24    1
    29     3    25    1
    30     5    26    1
    31     7    27    1
    32     8    28    1
    33    11    29    1
    34    13    30    1
    35    14    31    1
    36    15    32    1
    37    16    33    1
