@<TRIPOS>MOLECULE
*****
 44 51 0 0 0
SMALL
GASTEIGER

@<TRIPOS>ATOM
      1 SI          4.8544   -0.1647   -1.9108 Si      1  UNL1        0.0000
      2 C           6.7356    0.1622   -1.7699 C.2     1  UNL1        0.0000
      3 C           7.0511    0.7209   -0.5808 C.2     1  UNL1        0.0000
      4 C           5.9400    0.9405    0.2935 C.ar    1  UNL1        0.0000
      5 C           5.8871    1.4850    1.5475 C.ar    1  UNL1        0.0000
      6 S           4.2612    1.5115    2.1317 S.2     1  UNL1        0.0000
      7 C           3.6282    0.7831    0.6931 C.ar    1  UNL1        0.0000
      8 C           4.6568    0.5485   -0.1732 C.ar    1  UNL1        0.0000
      9 C           2.2012    0.5126    0.5820 C.ar    1  UNL1        0.0000
     10 C           1.7190   -0.7727    0.4235 C.ar    1  UNL1        0.0000
     11 N           0.4060   -1.0927    0.2885 N.ar    1  UNL1        0.0000
     12 C          -0.5446   -0.1312    0.3128 C.ar    1  UNL1        0.0000
     13 C          -0.1253    1.2158    0.4782 C.ar    1  UNL1        0.0000
     14 C           1.2538    1.5268    0.6103 C.ar    1  UNL1        0.0000
     15 C          -1.1921    2.1553    0.4905 C.ar    1  UNL1        0.0000
     16 C          -0.9858    3.5094    0.6427 C.ar    1  UNL1        0.0000
     17 S          -2.4483    4.3892    0.6179 S.2     1  UNL1        0.0000
     18 C          -3.3684    2.9578    0.4045 C.ar    1  UNL1        0.0000
     19 C          -2.6001    1.8152    0.3490 C.ar    1  UNL1        0.0000
     20 C          -3.0796    0.4919    0.1805 C.ar    1  UNL1        0.0000
     21 C          -4.4604    0.0863    0.0334 C.ar    1  UNL1        0.0000
     22 S          -5.9540    0.9844    0.0061 S.2     1  UNL1        0.0000
     23 C          -6.9325   -0.4000   -0.2062 C.ar    1  UNL1        0.0000
     24 C          -6.1942   -1.5566   -0.2632 C.ar    1  UNL1        0.0000
     25 C          -4.8297   -1.2466   -0.1270 C.ar    1  UNL1        0.0000
     26 C          -3.7834   -2.2022   -0.1404 C.ar    1  UNL1        0.0000
     27 C          -3.8538   -3.5531   -0.2790 C.ar    1  UNL1        0.0000
     28 O          -2.5760   -4.0348   -0.2273 O.2     1  UNL1        0.0000
     29 C          -1.7439   -2.9573   -0.0557 C.ar    1  UNL1        0.0000
     30 C          -2.4575   -1.7756    0.0043 C.ar    1  UNL1        0.0000
     31 C          -1.9574   -0.4581    0.1727 C.ar    1  UNL1        0.0000
     32 H           4.5699   -1.6191   -1.9869 H       1  UNL1        0.0000
     33 H           4.2501    0.6700   -2.9781 H       1  UNL1        0.0000
     34 H           7.4031   -0.0914   -2.5776 H       1  UNL1        0.0000
     35 H           8.0641    0.9866   -0.3007 H       1  UNL1        0.0000
     36 H           6.6912    1.8707    2.1583 H       1  UNL1        0.0000
     37 H           2.3907   -1.6277    0.4040 H       1  UNL1        0.0000
     38 H           1.5842    2.5545    0.7271 H       1  UNL1        0.0000
     39 H          -0.0620    4.0552    0.7700 H       1  UNL1        0.0000
     40 H          -4.4333    3.0945    0.3373 H       1  UNL1        0.0000
     41 H          -8.0066   -0.2964   -0.2789 H       1  UNL1        0.0000
     42 H          -6.6292   -2.5392   -0.3937 H       1  UNL1        0.0000
     43 H          -4.6334   -4.2886   -0.4118 H       1  UNL1        0.0000
     44 H          -0.6961   -3.2164    0.0017 H       1  UNL1        0.0000
@<TRIPOS>BOND
     1     1     2    1
     2     2     3    2
     3     3     4    1
     4     4     5   ar
     5     5     6   ar
     6     6     7   ar
     7     7     8   ar
     8     7     9    1
     9     9    10   ar
    10    10    11   ar
    11    11    12   ar
    12    12    13   ar
    13    13    14   ar
    14    13    15   ar
    15    15    16   ar
    16    16    17   ar
    17    17    18   ar
    18    18    19   ar
    19    19    20   ar
    20    20    21   ar
    21    21    22   ar
    22    22    23   ar
    23    23    24   ar
    24    24    25   ar
    25    25    26   ar
    26    26    27   ar
    27    27    28   ar
    28    28    29   ar
    29    29    30   ar
    30    30    31   ar
    31     8     1    1
    32    14     9   ar
    33    19    15   ar
    34    31    20   ar
    35     8     4   ar
    36    31    12   ar
    37    25    21   ar
    38    30    26   ar
    39     1    32    1
    40     1    33    1
    41     2    34    1
    42     3    35    1
    43     5    36    1
    44    10    37    1
    45    14    38    1
    46    16    39    1
    47    18    40    1
    48    23    41    1
    49    24    42    1
    50    27    43    1
    51    29    44    1
