@<TRIPOS>MOLECULE
*****
 40 43 0 0 0
SMALL
GASTEIGER

@<TRIPOS>ATOM
      1 O           1.6526    0.4365    2.2250 O.2     1  UNL1       -0.2714
      2 C           1.0247   -0.4064    1.5859 C.2     1  UNL1        0.2423
      3 C           1.4820   -1.8367    1.4844 C.3     1  UNL1        0.0806
      4 S           1.9527   -2.3176   -0.2008 S.3     1  UNL1       -0.0765
      5 C           3.1048   -1.0108   -0.5145 C.ar    1  UNL1        0.1886
      6 N           4.2580   -1.0174    0.1716 N.ar    1  UNL1       -0.2303
      7 C           5.0682    0.0380   -0.0310 C.ar    1  UNL1        0.0319
      8 C           4.7648    1.0783   -0.8776 C.ar    1  UNL1       -0.0254
      9 C           3.5581    0.9801   -1.5279 C.ar    1  UNL1        0.0319
     10 N           2.7118   -0.0522   -1.3660 N.ar    1  UNL1       -0.2303
     11 N          -0.1530   -0.0222    0.8938 N.ar    1  UNL1       -0.2831
     12 C          -1.2700   -0.7854    0.5446 C.ar    1  UNL1        0.0307
     13 C          -2.1221   -0.0114   -0.2239 C.ar    1  UNL1       -0.0185
     14 C          -1.5881    1.2956   -0.2863 C.ar    1  UNL1        0.0037
     15 C          -2.0321    2.4948   -0.8829 C.ar    1  UNL1       -0.0523
     16 C          -1.2745    3.6607   -0.7523 C.ar    1  UNL1       -0.0611
     17 C          -0.0842    3.6443   -0.0388 C.ar    1  UNL1       -0.0598
     18 C           0.3760    2.4672    0.5589 C.ar    1  UNL1       -0.0372
     19 C          -0.3929    1.2898    0.4376 C.ar    1  UNL1        0.0569
     20 C          -3.4152   -0.5074   -0.7864 C.3     1  UNL1       -0.0254
     21 C          -3.5290   -2.0339   -0.6773 C.3     1  UNL1       -0.0486
     22 C          -3.0594   -2.5301    0.6959 C.3     1  UNL1       -0.0474
     23 C          -1.5779   -2.1949    0.9477 C.3     1  UNL1       -0.0116
     24 H           2.3708   -1.9424    2.1188 H       1  UNL1        0.0478
     25 H           0.7553   -2.5290    1.9061 H       1  UNL1        0.0478
     26 H           5.9975    0.0242    0.5310 H       1  UNL1        0.0831
     27 H           5.4292    1.9188   -1.0196 H       1  UNL1        0.0648
     28 H           3.2215    1.7520   -2.2140 H       1  UNL1        0.0831
     29 H          -2.9631    2.5150   -1.4420 H       1  UNL1        0.0624
     30 H          -1.6203    4.5827   -1.2118 H       1  UNL1        0.0618
     31 H           0.5012    4.5555    0.0573 H       1  UNL1        0.0618
     32 H           1.3162    2.4775    1.1028 H       1  UNL1        0.0638
     33 H          -4.2393   -0.0428   -0.2308 H       1  UNL1        0.0314
     34 H          -3.5166   -0.2069   -1.8353 H       1  UNL1        0.0314
     35 H          -4.5669   -2.3379   -0.8538 H       1  UNL1        0.0269
     36 H          -2.9189   -2.5061   -1.4580 H       1  UNL1        0.0269
     37 H          -3.2051   -3.6136    0.7730 H       1  UNL1        0.0269
     38 H          -3.6787   -2.0684    1.4760 H       1  UNL1        0.0269
     39 H          -1.3711   -2.3491    2.0115 H       1  UNL1        0.0328
     40 H          -0.9670   -2.8884    0.3618 H       1  UNL1        0.0328
@<TRIPOS>BOND
     1     1     2    2
     2     2     3    1
     3     3     4    1
     4     4     5    1
     5     5     6   ar
     6     6     7   ar
     7     7     8   ar
     8     8     9   ar
     9     9    10   ar
    10     2    11   am
    11    11    12   ar
    12    12    13   ar
    13    13    14   ar
    14    14    15   ar
    15    15    16   ar
    16    16    17   ar
    17    17    18   ar
    18    18    19   ar
    19    13    20    1
    20    20    21    1
    21    21    22    1
    22    22    23    1
    23    10     5   ar
    24    19    11   ar
    25    23    12    1
    26    19    14   ar
    27     3    24    1
    28     3    25    1
    29     7    26    1
    30     8    27    1
    31     9    28    1
    32    15    29    1
    33    16    30    1
    34    17    31    1
    35    18    32    1
    36    20    33    1
    37    20    34    1
    38    21    35    1
    39    21    36    1
    40    22    37    1
    41    22    38    1
    42    23    39    1
    43    23    40    1
