@<TRIPOS>MOLECULE
*****
 38 41 0 0 0
SMALL
GASTEIGER

@<TRIPOS>ATOM
      1 O           2.4835    2.1375   -3.2555 O.2     1  UNL1       -0.2745
      2 C           1.6827    1.2239   -3.0758 C.2     1  UNL1        0.2289
      3 C           0.5240    1.0137   -4.0400 C.3     1  UNL1        0.0780
      4 S          -0.9517    1.9053   -3.4900 S.3     1  UNL1       -0.0750
      5 C          -1.5375    0.8579   -2.2307 C.ar    1  UNL1        0.2096
      6 N          -0.9570   -0.3380   -1.9129 N.ar    1  UNL1       -0.2091
      7 C          -1.7009   -0.7586   -0.9129 C.ar    1  UNL1        0.1210
      8 N          -2.6986    0.1467   -0.6373 N.ar    1  UNL1       -0.2192
      9 C          -3.7101    0.0854    0.3549 C.ar    1  UNL1        0.0671
     10 C          -3.7981   -1.0018    1.2359 C.ar    1  UNL1       -0.0362
     11 C          -4.8065   -1.0346    2.2036 C.ar    1  UNL1       -0.0598
     12 C          -5.7259    0.0091    2.2975 C.ar    1  UNL1       -0.0616
     13 C          -5.6422    1.0918    1.4249 C.ar    1  UNL1       -0.0598
     14 C          -4.6385    1.1331    0.4554 C.ar    1  UNL1       -0.0362
     15 N          -2.5953    1.1896   -1.4950 N.ar    1  UNL1       -0.1382
     16 N           1.7058    0.2969   -2.0581 N.am    1  UNL1       -0.2640
     17 C           2.6098    0.1987   -1.0334 C.ar    1  UNL1        0.1655
     18 N           2.4272   -0.6603   -0.0588 N.ar    1  UNL1       -0.2246
     19 C           3.4777   -0.5724    0.8404 C.ar    1  UNL1        0.0803
     20 C           3.6271   -1.3333    2.0178 C.ar    1  UNL1       -0.0351
     21 C           4.7452   -1.1372    2.8356 C.ar    1  UNL1       -0.0597
     22 C           5.7117   -0.1960    2.4944 C.ar    1  UNL1       -0.0606
     23 C           5.5875    0.5706    1.3316 C.ar    1  UNL1       -0.0458
     24 C           4.4609    0.3650    0.5185 C.ar    1  UNL1        0.0408
     25 S           4.0259    1.1352   -0.9563 S.2     1  UNL1       -0.0520
     26 H           0.8256    1.4097   -5.0159 H       1  UNL1        0.0475
     27 H           0.3236   -0.0530   -4.1860 H       1  UNL1        0.0475
     28 H          -1.5607   -1.6810   -0.3692 H       1  UNL1        0.1048
     29 H          -3.1053   -1.8371    1.2039 H       1  UNL1        0.0639
     30 H          -4.8758   -1.8768    2.8885 H       1  UNL1        0.0618
     31 H          -6.5081   -0.0203    3.0522 H       1  UNL1        0.0618
     32 H          -6.3581    1.9071    1.4980 H       1  UNL1        0.0618
     33 H          -4.5940    1.9910   -0.2142 H       1  UNL1        0.0639
     34 H           0.8985   -0.3111   -1.9395 H       1  UNL1        0.1567
     35 H           2.8720   -2.0669    2.2810 H       1  UNL1        0.0639
     36 H           4.8573   -1.7254    3.7434 H       1  UNL1        0.0618
     37 H           6.5765   -0.0529    3.1393 H       1  UNL1        0.0618
     38 H           6.3417    1.3050    1.0651 H       1  UNL1        0.0629
@<TRIPOS>BOND
     1     1     2    2
     2     2     3    1
     3     3     4    1
     4     4     5    1
     5     5     6   ar
     6     6     7   ar
     7     7     8   ar
     8     8     9    1
     9     9    10   ar
    10    10    11   ar
    11    11    12   ar
    12    12    13   ar
    13    13    14   ar
    14     8    15   ar
    15     2    16   am
    16    16    17    1
    17    17    18   ar
    18    18    19   ar
    19    19    20   ar
    20    20    21   ar
    21    21    22   ar
    22    22    23   ar
    23    23    24   ar
    24    24    25   ar
    25    15     5   ar
    26    25    17   ar
    27    14     9   ar
    28    24    19   ar
    29     3    26    1
    30     3    27    1
    31     7    28    1
    32    10    29    1
    33    11    30    1
    34    12    31    1
    35    13    32    1
    36    14    33    1
    37    16    34    1
    38    20    35    1
    39    21    36    1
    40    22    37    1
    41    23    38    1
