@<TRIPOS>MOLECULE
*****
 38 41 0 0 0
SMALL
GASTEIGER

@<TRIPOS>ATOM
      1 O           0.0285    0.9761    1.9006 O.2     1  UNL1       -0.2909
      2 C           0.7414   -0.0263    1.7975 C.2     1  UNL1        0.1802
      3 C           0.2672   -1.4133    2.2110 C.3     1  UNL1        0.0645
      4 S          -1.5055   -1.6394    1.8532 S.3     1  UNL1       -0.0763
      5 C          -1.5146   -1.4125    0.1343 C.ar    1  UNL1        0.2144
      6 N          -0.4432   -1.5698   -0.6149 N.ar    1  UNL1       -0.1011
      7 N          -0.8574   -1.4417   -1.9057 N.ar    1  UNL1       -0.0218
      8 N          -2.1583   -1.2141   -1.9667 N.ar    1  UNL1       -0.0382
      9 N          -2.6090   -1.1385   -0.6797 N.ar    1  UNL1       -0.1875
     10 C          -3.9740   -0.8152   -0.4280 C.ar    1  UNL1        0.0699
     11 C          -4.8776   -0.8228   -1.5083 C.ar    1  UNL1       -0.0361
     12 C          -6.2265   -0.5131   -1.3161 C.ar    1  UNL1       -0.0598
     13 C          -6.6907   -0.1827   -0.0475 C.ar    1  UNL1       -0.0616
     14 C          -5.8048   -0.1541    1.0259 C.ar    1  UNL1       -0.0598
     15 C          -4.4521   -0.4639    0.8395 C.ar    1  UNL1       -0.0361
     16 C           2.1165    0.1021    1.2318 C.ar    1  UNL1        0.1032
     17 C           2.2908    1.0086    0.2581 C.ar    1  UNL1       -0.0337
     18 C           3.5945    1.1702   -0.3629 C.ar    1  UNL1        0.0183
     19 C           3.8247    2.1027   -1.3760 C.ar    1  UNL1       -0.0511
     20 C           5.0963    2.2137   -1.9479 C.ar    1  UNL1       -0.0610
     21 C           6.1398    1.3933   -1.5121 C.ar    1  UNL1       -0.0582
     22 C           5.9167    0.4602   -0.5017 C.ar    1  UNL1       -0.0186
     23 C           4.6459    0.3620    0.0595 C.ar    1  UNL1        0.1391
     24 O           4.4594   -0.5882    1.0799 O.2     1  UNL1       -0.4217
     25 C           3.2292   -0.7417    1.7081 C.ar    1  UNL1        0.3479
     26 O           3.0801   -1.5396    2.6279 O.2     1  UNL1       -0.2444
     27 H           0.4262   -1.5271    3.2870 H       1  UNL1        0.0462
     28 H           0.8212   -2.1954    1.6847 H       1  UNL1        0.0462
     29 H          -4.5548   -1.0802   -2.5163 H       1  UNL1        0.0639
     30 H          -6.9126   -0.5294   -2.1597 H       1  UNL1        0.0618
     31 H          -7.7388    0.0628    0.1037 H       1  UNL1        0.0618
     32 H          -6.1639    0.1212    2.0153 H       1  UNL1        0.0618
     33 H          -3.8143   -0.3771    1.7102 H       1  UNL1        0.0639
     34 H           1.4732    1.6306   -0.0969 H       1  UNL1        0.0634
     35 H           3.0248    2.7484   -1.7311 H       1  UNL1        0.0625
     36 H           5.2733    2.9407   -2.7373 H       1  UNL1        0.0618
     37 H           7.1259    1.4828   -1.9618 H       1  UNL1        0.0619
     38 H           6.7225   -0.1816   -0.1575 H       1  UNL1        0.0654
@<TRIPOS>BOND
     1     1     2    2
     2     2     3    1
     3     3     4    1
     4     4     5    1
     5     5     6   ar
     6     6     7   ar
     7     7     8   ar
     8     8     9   ar
     9     9    10    1
    10    10    11   ar
    11    11    12   ar
    12    12    13   ar
    13    13    14   ar
    14    14    15   ar
    15     2    16    1
    16    16    17   ar
    17    17    18   ar
    18    18    19   ar
    19    19    20   ar
    20    20    21   ar
    21    21    22   ar
    22    22    23   ar
    23    23    24   ar
    24    24    25   ar
    25    25    26    2
    26     9     5   ar
    27    15    10   ar
    28    25    16   ar
    29    23    18   ar
    30     3    27    1
    31     3    28    1
    32    11    29    1
    33    12    30    1
    34    13    31    1
    35    14    32    1
    36    15    33    1
    37    17    34    1
    38    19    35    1
    39    20    36    1
    40    21    37    1
    41    22    38    1
