@<TRIPOS>MOLECULE
*****
 33 34 0 0 0
SMALL
GASTEIGER

@<TRIPOS>ATOM
      1 O          -0.6989   -0.3543   -0.5839 O.2     1  UNL1       -0.2697
      2 C          -1.6045    0.0160    0.1609 C.2     1  UNL1        0.2523
      3 N          -1.3796    0.6381    1.3835 N.am    1  UNL1       -0.2637
      4 C          -0.1836    0.9554    1.9895 C.2     1  UNL1        0.1371
      5 S          -0.2337    1.7106    3.4789 S.2     1  UNL1       -0.0185
      6 N           0.9445    0.6170    1.3040 N.am    1  UNL1       -0.3222
      7 C           2.3152    0.8404    1.7219 C.3     1  UNL1        0.0359
      8 C           3.2865    0.3267    0.6935 C.ar    1  UNL1       -0.0304
      9 C           3.7364   -1.0003    0.7403 C.ar    1  UNL1       -0.0571
     10 C           4.6191   -1.4827   -0.2273 C.ar    1  UNL1       -0.0615
     11 C           5.0531   -0.6471   -1.2548 C.ar    1  UNL1       -0.0617
     12 C           4.6013    0.6697   -1.3193 C.ar    1  UNL1       -0.0615
     13 C           3.7186    1.1540   -0.3526 C.ar    1  UNL1       -0.0571
     14 C          -3.0215   -0.2028   -0.2473 C.ar    1  UNL1        0.0722
     15 C          -3.2730   -0.8292   -1.4781 C.ar    1  UNL1       -0.0468
     16 C          -4.5848   -1.0566   -1.9049 C.ar    1  UNL1       -0.0609
     17 C          -5.6579   -0.6610   -1.1076 C.ar    1  UNL1       -0.0590
     18 C          -5.4194   -0.0382    0.1161 C.ar    1  UNL1       -0.0257
     19 C          -4.1092    0.1862    0.5371 C.ar    1  UNL1        0.1355
     20 F          -3.9241    0.7886    1.7217 F       1  UNL1       -0.2047
     21 H          -2.1862    0.9107    1.9339 H       1  UNL1        0.1568
     22 H           0.8036    0.1587    0.4028 H       1  UNL1        0.1481
     23 H           2.4774    0.3410    2.6844 H       1  UNL1        0.0511
     24 H           2.4644    1.9140    1.8864 H       1  UNL1        0.0511
     25 H           3.3961   -1.6661    1.5305 H       1  UNL1        0.0621
     26 H           4.9638   -2.5124   -0.1820 H       1  UNL1        0.0618
     27 H           5.7380   -1.0243   -2.0095 H       1  UNL1        0.0618
     28 H           4.9321    1.3189   -2.1257 H       1  UNL1        0.0618
     29 H           3.3642    2.1803   -0.4209 H       1  UNL1        0.0621
     30 H          -2.4463   -1.1446   -2.1134 H       1  UNL1        0.0626
     31 H          -4.7664   -1.5431   -2.8611 H       1  UNL1        0.0618
     32 H          -6.6782   -0.8382   -1.4403 H       1  UNL1        0.0618
     33 H          -6.2471    0.2746    0.7462 H       1  UNL1        0.0646
@<TRIPOS>BOND
     1     1     2    2
     2     2     3   am
     3     3     4    1
     4     4     5    2
     5     4     6    1
     6     6     7    1
     7     7     8    1
     8     8     9   ar
     9     9    10   ar
    10    10    11   ar
    11    11    12   ar
    12    12    13   ar
    13     2    14    1
    14    14    15   ar
    15    15    16   ar
    16    16    17   ar
    17    17    18   ar
    18    18    19   ar
    19    19    20    1
    20    13     8   ar
    21    19    14   ar
    22     3    21    1
    23     6    22    1
    24     7    23    1
    25     7    24    1
    26     9    25    1
    27    10    26    1
    28    11    27    1
    29    12    28    1
    30    13    29    1
    31    15    30    1
    32    16    31    1
    33    17    32    1
    34    18    33    1
