@<TRIPOS>MOLECULE
*****
 29 31 0 0 0
SMALL
GASTEIGER

@<TRIPOS>ATOM
      1 O          -1.1597   -0.0923   -2.4347 O.2     1  UNL1       -0.2681
      2 C          -0.5986   -0.0930   -1.3447 C.2     1  UNL1        0.2700
      3 N          -1.2458    0.0959   -0.1299 N.am    1  UNL1       -0.2769
      4 C          -2.6474    0.1540    0.0735 C.ar    1  UNL1        0.0836
      5 C          -3.5791   -0.5063   -0.7416 C.ar    1  UNL1        0.1483
      6 F          -3.1866   -1.3351   -1.7178 F       1  UNL1       -0.2034
      7 C          -4.9481   -0.4112   -0.5039 C.ar    1  UNL1        0.0107
      8 C          -5.3996    0.3337    0.5738 C.ar    1  UNL1        0.1273
      9 F          -6.7142    0.4226    0.8107 F       1  UNL1       -0.2054
     10 C          -4.5087    0.9696    1.4279 C.ar    1  UNL1       -0.0105
     11 C          -3.1372    0.8699    1.1823 C.ar    1  UNL1        0.0446
     12 BR         -1.9585    1.7540    2.3875 Br      1  UNL1       -0.0482
     13 C           0.8642   -0.2097   -1.2142 C.ar    1  UNL1        0.1681
     14 C           1.6355   -0.5322   -0.0612 C.ar    1  UNL1        0.0130
     15 C           2.9369   -0.5019   -0.4923 C.ar    1  UNL1        0.1411
     16 C           4.1893   -0.7949    0.3677 C.3     1  UNL1        0.0199
     17 C           5.3594    0.1498    0.2862 C.3     1  UNL1       -0.0426
     18 C           4.5162    0.1092    1.5273 C.3     1  UNL1       -0.0426
     19 O           2.9630   -0.1925   -1.8121 O.2     1  UNL1       -0.3586
     20 N           1.6729   -0.0116   -2.2696 N.ar    1  UNL1       -0.0734
     21 H          -0.6829    0.4750    0.6222 H       1  UNL1        0.1553
     22 H          -5.6494   -0.9333   -1.1455 H       1  UNL1        0.0676
     23 H          -4.8967    1.5322    2.2718 H       1  UNL1        0.0658
     24 H           1.2946   -0.7693    0.9347 H       1  UNL1        0.0676
     25 H           4.4204   -1.8500    0.4738 H       1  UNL1        0.0380
     26 H           5.2809    1.0206   -0.3555 H       1  UNL1        0.0272
     27 H           6.3556   -0.2753    0.3306 H       1  UNL1        0.0272
     28 H           4.9448   -0.3408    2.4156 H       1  UNL1        0.0272
     29 H           3.8790    0.9631    1.7273 H       1  UNL1        0.0272
@<TRIPOS>BOND
     1     1     2    2
     2     2     3   am
     3     3     4    1
     4     4     5   ar
     5     5     6    1
     6     5     7   ar
     7     7     8   ar
     8     8     9    1
     9     8    10   ar
    10    10    11   ar
    11    11    12    1
    12     2    13    1
    13    13    14   ar
    14    14    15   ar
    15    15    16    1
    16    16    17    1
    17    17    18    1
    18    15    19   ar
    19    19    20   ar
    20    11     4   ar
    21    20    13   ar
    22    18    16    1
    23     3    21    1
    24     7    22    1
    25    10    23    1
    26    14    24    1
    27    16    25    1
    28    17    26    1
    29    17    27    1
    30    18    28    1
    31    18    29    1
