@<TRIPOS>MOLECULE
*****
 49 52 0 0 0
SMALL
GASTEIGER

@<TRIPOS>ATOM
      1 O           2.3823   -1.9376   -0.1579 O.2     1  UNL1       -0.2702
      2 C           1.9039   -0.9848    0.4460 C.2     1  UNL1        0.2443
      3 N           2.6603   -0.0615    1.1414 N.am    1  UNL1       -0.3082
      4 C           4.0976   -0.2022    1.2423 C.3     1  UNL1        0.0265
      5 C           4.7420    0.8230    2.1987 C.3     1  UNL1       -0.0314
      6 C           5.8185    1.4887    1.3217 C.3     1  UNL1       -0.0390
      7 C           5.1266    2.4136    0.3072 C.3     1  UNL1       -0.0498
      8 C           4.4820    1.4253   -0.6745 C.3     1  UNL1       -0.0483
      9 C           4.8579    0.0530   -0.0832 C.3     1  UNL1       -0.0223
     10 C           6.2710    0.3292    0.4349 C.3     1  UNL1       -0.0456
     11 C           0.4285   -0.7912    0.4942 C.ar    1  UNL1        0.0367
     12 C          -0.1463    0.4788    0.6255 C.ar    1  UNL1       -0.0493
     13 C          -1.5374    0.6181    0.6631 C.ar    1  UNL1       -0.0566
     14 C          -2.3708   -0.5053    0.5565 C.ar    1  UNL1       -0.0333
     15 C          -3.8782   -0.3532    0.6182 C.3     1  UNL1        0.0242
     16 N          -4.5792   -1.0328   -0.4804 N.3     1  UNL1       -0.2938
     17 C          -4.3639   -0.3885   -1.7949 C.3     1  UNL1        0.0228
     18 C          -5.5300    0.5107   -2.2360 C.3     1  UNL1        0.0604
     19 O          -6.7820   -0.1829   -2.3255 O.3     1  UNL1       -0.3772
     20 C          -6.8584   -1.3214   -1.4565 C.3     1  UNL1        0.0604
     21 C          -6.0233   -1.1408   -0.1814 C.3     1  UNL1        0.0228
     22 C          -1.7849   -1.7730    0.4192 C.ar    1  UNL1       -0.0566
     23 C          -0.3961   -1.9147    0.3786 C.ar    1  UNL1       -0.0493
     24 H           2.1896    0.5207    1.8203 H       1  UNL1        0.1493
     25 H           4.3088   -1.2177    1.6020 H       1  UNL1        0.0501
     26 H           4.0341    1.5509    2.6089 H       1  UNL1        0.0286
     27 H           5.2119    0.2981    3.0389 H       1  UNL1        0.0286
     28 H           6.6065    1.9804    1.8955 H       1  UNL1        0.0301
     29 H           4.3869    3.0715    0.7742 H       1  UNL1        0.0268
     30 H           5.8593    3.0391   -0.2150 H       1  UNL1        0.0268
     31 H           4.9239    1.5475   -1.6704 H       1  UNL1        0.0269
     32 H           3.4033    1.5799   -0.7683 H       1  UNL1        0.0269
     33 H           4.7788   -0.7636   -0.8038 H       1  UNL1        0.0319
     34 H           6.9687    0.6340   -0.3522 H       1  UNL1        0.0271
     35 H           6.6967   -0.5071    0.9995 H       1  UNL1        0.0271
     36 H           0.4720    1.3707    0.6709 H       1  UNL1        0.0625
     37 H          -1.9668    1.6126    0.7639 H       1  UNL1        0.0621
     38 H          -4.1891   -0.7836    1.5799 H       1  UNL1        0.0476
     39 H          -4.1545    0.7091    0.6466 H       1  UNL1        0.0476
     40 H          -3.4270    0.1779   -1.8335 H       1  UNL1        0.0449
     41 H          -4.2603   -1.1978   -2.5289 H       1  UNL1        0.0449
     42 H          -5.3225    0.9370   -3.2228 H       1  UNL1        0.0572
     43 H          -5.6552    1.3489   -1.5406 H       1  UNL1        0.0572
     44 H          -7.9127   -1.4654   -1.1991 H       1  UNL1        0.0572
     45 H          -6.5364   -2.2071   -2.0169 H       1  UNL1        0.0572
     46 H          -6.1856   -1.9913    0.4896 H       1  UNL1        0.0449
     47 H          -6.3764   -0.2350    0.3297 H       1  UNL1        0.0449
     48 H          -2.4149   -2.6564    0.3295 H       1  UNL1        0.0621
     49 H           0.0408   -2.9040    0.2574 H       1  UNL1        0.0625
@<TRIPOS>BOND
     1     1     2    2
     2     2     3   am
     3     3     4    1
     4     4     5    1
     5     5     6    1
     6     6     7    1
     7     7     8    1
     8     8     9    1
     9     9    10    1
    10     2    11    1
    11    11    12   ar
    12    12    13   ar
    13    13    14   ar
    14    14    15    1
    15    15    16    1
    16    16    17    1
    17    17    18    1
    18    18    19    1
    19    19    20    1
    20    20    21    1
    21    14    22   ar
    22    22    23   ar
    23     9     4    1
    24    23    11   ar
    25    10     6    1
    26    21    16    1
    27     3    24    1
    28     4    25    1
    29     5    26    1
    30     5    27    1
    31     6    28    1
    32     7    29    1
    33     7    30    1
    34     8    31    1
    35     8    32    1
    36     9    33    1
    37    10    34    1
    38    10    35    1
    39    12    36    1
    40    13    37    1
    41    15    38    1
    42    15    39    1
    43    17    40    1
    44    17    41    1
    45    18    42    1
    46    18    43    1
    47    20    44    1
    48    20    45    1
    49    21    46    1
    50    21    47    1
    51    22    48    1
    52    23    49    1
