@<TRIPOS>MOLECULE
*****
 32 34 0 0 0
SMALL
GASTEIGER

@<TRIPOS>ATOM
      1 O           1.1362    1.3726    0.4988 O.2     1  UNL1       -0.2682
      2 C           1.1305    0.2142    0.0942 C.2     1  UNL1        0.2671
      3 N           2.2749   -0.5372   -0.1485 N.am    1  UNL1       -0.2802
      4 C           3.6195   -0.1369    0.0143 C.ar    1  UNL1        0.0338
      5 C           4.6061   -1.0836   -0.2994 C.ar    1  UNL1       -0.0391
      6 C           5.9638   -0.7739   -0.1679 C.ar    1  UNL1       -0.0416
      7 C           6.3440    0.4875    0.2790 C.ar    1  UNL1        0.0411
      8 CL          8.0120    0.8719    0.4418 Cl      1  UNL1       -0.0835
      9 C           5.3773    1.4371    0.5940 C.ar    1  UNL1       -0.0416
     10 C           4.0185    1.1251    0.4618 C.ar    1  UNL1       -0.0391
     11 C          -0.1508   -0.4832   -0.1713 C.ar    1  UNL1        0.1335
     12 C          -0.3274   -1.7782   -0.6265 C.ar    1  UNL1        0.0082
     13 S          -1.9931   -2.1478   -0.7841 S.2     1  UNL1       -0.0749
     14 C          -2.4052   -0.5679   -0.2396 C.ar    1  UNL1        0.1091
     15 C          -3.8053   -0.1130   -0.1047 C.ar    1  UNL1        0.0071
     16 C          -4.9185   -0.9164   -0.4043 C.ar    1  UNL1       -0.0521
     17 C          -6.2218   -0.4275   -0.2560 C.ar    1  UNL1       -0.0611
     18 C          -6.4359    0.8723    0.1942 C.ar    1  UNL1       -0.0617
     19 C          -5.3489    1.6859    0.4969 C.ar    1  UNL1       -0.0611
     20 C          -4.0481    1.1965    0.3483 C.ar    1  UNL1       -0.0521
     21 N          -1.3601    0.1853    0.0414 N.ar    1  UNL1       -0.2344
     22 H           2.1490   -1.4800   -0.4799 H       1  UNL1        0.1552
     23 H           4.3372   -2.0766   -0.6507 H       1  UNL1        0.0636
     24 H           6.7151   -1.5191   -0.4152 H       1  UNL1        0.0633
     25 H           5.6666    2.4249    0.9439 H       1  UNL1        0.0633
     26 H           3.3012    1.8984    0.7195 H       1  UNL1        0.0636
     27 H           0.4011   -2.5328   -0.8774 H       1  UNL1        0.0717
     28 H          -4.8011   -1.9369   -0.7586 H       1  UNL1        0.0624
     29 H          -7.0699   -1.0652   -0.4932 H       1  UNL1        0.0618
     30 H          -7.4483    1.2509    0.3090 H       1  UNL1        0.0618
     31 H          -5.5072    2.7021    0.8490 H       1  UNL1        0.0618
     32 H          -3.2112    1.8513    0.5913 H       1  UNL1        0.0624
@<TRIPOS>BOND
     1     1     2    2
     2     2     3   am
     3     3     4    1
     4     4     5   ar
     5     5     6   ar
     6     6     7   ar
     7     7     8    1
     8     7     9   ar
     9     9    10   ar
    10     2    11    1
    11    11    12   ar
    12    12    13   ar
    13    13    14   ar
    14    14    15    1
    15    15    16   ar
    16    16    17   ar
    17    17    18   ar
    18    18    19   ar
    19    19    20   ar
    20    14    21   ar
    21    10     4   ar
    22    21    11   ar
    23    20    15   ar
    24     3    22    1
    25     5    23    1
    26     6    24    1
    27     9    25    1
    28    10    26    1
    29    12    27    1
    30    16    28    1
    31    17    29    1
    32    18    30    1
    33    19    31    1
    34    20    32    1
