@<TRIPOS>MOLECULE
*****
 38 40 0 0 0
SMALL
GASTEIGER

@<TRIPOS>ATOM
      1 O           3.3935   -1.3371   -1.9335 O.2     1  UNL1       -0.2665
      2 C           3.0224   -0.5286   -1.0870 C.2     1  UNL1        0.2836
      3 N           1.8061   -0.6081   -0.4279 N.am    1  UNL1       -0.2783
      4 C           0.8317   -1.6349   -0.4808 C.ar    1  UNL1        0.0460
      5 C           1.0464   -2.8494   -1.1419 C.ar    1  UNL1       -0.0384
      6 C           0.0823   -3.8638   -1.1065 C.ar    1  UNL1       -0.0416
      7 C          -1.1000   -3.6788   -0.3976 C.ar    1  UNL1        0.0418
      8 CL         -2.2684   -4.9386   -0.3344 Cl      1  UNL1       -0.0835
      9 C          -1.3442   -2.4785    0.2596 C.ar    1  UNL1       -0.0295
     10 C          -0.3992   -1.4442    0.1899 C.ar    1  UNL1        0.0594
     11 C          -0.6912   -0.1504    0.8655 C.2     1  UNL1        0.2486
     12 O           0.2127    0.3729    1.5182 O.2     1  UNL1       -0.2699
     13 N          -1.9405    0.4409    0.7153 N.am    1  UNL1       -0.2931
     14 C          -2.2259    1.6568    1.4801 C.3     1  UNL1        0.0385
     15 C          -3.7262    1.9567    1.4974 C.3     1  UNL1        0.0635
     16 O          -4.2978    2.1166    0.1905 O.3     1  UNL1       -0.3767
     17 C          -3.5740    1.4489   -0.8513 C.3     1  UNL1        0.0635
     18 C          -2.8802    0.1641   -0.3822 C.3     1  UNL1        0.0385
     19 C           3.8264    0.6261   -0.7046 C.ar    1  UNL1        0.1893
     20 C           3.6831    1.6173    0.2550 C.ar    1  UNL1       -0.0113
     21 C           4.8081    2.4718    0.1405 C.ar    1  UNL1       -0.0231
     22 C           5.5744    1.9580   -0.8757 C.ar    1  UNL1        0.0928
     23 O           4.9945    0.8466   -1.3912 O.2     1  UNL1       -0.4583
     24 H           1.5851    0.1457    0.2205 H       1  UNL1        0.1552
     25 H           1.9686   -3.0554   -1.6780 H       1  UNL1        0.0637
     26 H           0.2770   -4.8020   -1.6214 H       1  UNL1        0.0633
     27 H          -2.2597   -2.3517    0.8306 H       1  UNL1        0.0640
     28 H          -1.6794    2.4753    0.9963 H       1  UNL1        0.0487
     29 H          -1.8407    1.5451    2.4993 H       1  UNL1        0.0487
     30 H          -3.9247    2.8746    2.0593 H       1  UNL1        0.0575
     31 H          -4.2687    1.1437    1.9938 H       1  UNL1        0.0575
     32 H          -4.2833    1.2243   -1.6541 H       1  UNL1        0.0575
     33 H          -2.8380    2.1558   -1.2519 H       1  UNL1        0.0575
     34 H          -3.6283   -0.5315    0.0135 H       1  UNL1        0.0487
     35 H          -2.3606   -0.3050   -1.2223 H       1  UNL1        0.0487
     36 H           2.8734    1.7189    0.9651 H       1  UNL1        0.0657
     37 H           5.0336    3.3501    0.7290 H       1  UNL1        0.0649
     38 H           6.5121    2.2477   -1.3297 H       1  UNL1        0.1029
@<TRIPOS>BOND
     1     1     2    2
     2     2     3   am
     3     3     4    1
     4     4     5   ar
     5     5     6   ar
     6     6     7   ar
     7     7     8    1
     8     7     9   ar
     9     9    10   ar
    10    10    11    1
    11    11    12    2
    12    11    13   am
    13    13    14    1
    14    14    15    1
    15    15    16    1
    16    16    17    1
    17    17    18    1
    18     2    19    1
    19    19    20   ar
    20    20    21   ar
    21    21    22   ar
    22    22    23   ar
    23    10     4   ar
    24    18    13    1
    25    23    19   ar
    26     3    24    1
    27     5    25    1
    28     6    26    1
    29     9    27    1
    30    14    28    1
    31    14    29    1
    32    15    30    1
    33    15    31    1
    34    17    32    1
    35    17    33    1
    36    18    34    1
    37    18    35    1
    38    20    36    1
    39    21    37    1
    40    22    38    1
