@<TRIPOS>MOLECULE
*****
 39 41 0 0 0
SMALL
GASTEIGER

@<TRIPOS>ATOM
      1 O           2.6969   -1.0862   -1.7995 O.2     1  UNL1       -0.2699
      2 C           2.9938   -0.4452   -0.7992 C.2     1  UNL1        0.2483
      3 N           2.1208    0.1623    0.0854 N.am    1  UNL1       -0.2815
      4 C           0.7104    0.1066    0.0681 C.ar    1  UNL1        0.0352
      5 C           0.0317    0.8749    1.0153 C.ar    1  UNL1       -0.0386
      6 C          -1.3656    0.8690    1.0649 C.ar    1  UNL1       -0.0375
      7 C          -2.1349    0.0981    0.1778 C.ar    1  UNL1        0.0485
      8 N          -3.5253    0.1940    0.3472 N.pl3   1  UNL1       -0.3244
      9 C          -4.1880   -1.0451    0.8050 C.3     1  UNL1        0.0357
     10 C          -5.6448   -0.7204    1.1810 C.3     1  UNL1        0.0634
     11 O          -6.3562   -0.1282    0.0790 O.3     1  UNL1       -0.3767
     12 C          -5.7057    1.0840   -0.3439 C.3     1  UNL1        0.0634
     13 C          -4.2512    0.8246   -0.7753 C.3     1  UNL1        0.0357
     14 C          -1.4387   -0.6770   -0.7707 C.ar    1  UNL1        0.0637
     15 CL         -2.2345   -1.6870   -1.9318 Cl      1  UNL1       -0.0816
     16 C          -0.0334   -0.6697   -0.8195 C.ar    1  UNL1       -0.0203
     17 C           4.4390   -0.2449   -0.4972 C.ar    1  UNL1        0.0397
     18 C           5.3383   -0.1403   -1.5692 C.ar    1  UNL1       -0.0495
     19 C           6.7023    0.0446   -1.3307 C.ar    1  UNL1       -0.0583
     20 C           7.1719    0.1153   -0.0206 C.ar    1  UNL1       -0.0264
     21 C           6.2769   -0.0085    1.0372 C.ar    1  UNL1        0.1241
     22 F           6.7338    0.0454    2.2950 F       1  UNL1       -0.2055
     23 C           4.9161   -0.1923    0.8164 C.ar    1  UNL1       -0.0143
     24 H           2.5236    0.7715    0.7855 H       1  UNL1        0.1551
     25 H           0.5704    1.4928    1.7288 H       1  UNL1        0.0637
     26 H          -1.8714    1.4789    1.8113 H       1  UNL1        0.0637
     27 H          -3.6728   -1.4576    1.6802 H       1  UNL1        0.0486
     28 H          -4.1940   -1.8017    0.0142 H       1  UNL1        0.0486
     29 H          -5.6872   -0.0366    2.0373 H       1  UNL1        0.0575
     30 H          -6.1707   -1.6390    1.4593 H       1  UNL1        0.0575
     31 H          -5.7496    1.8126    0.4745 H       1  UNL1        0.0575
     32 H          -6.2764    1.4899   -1.1850 H       1  UNL1        0.0575
     33 H          -3.7820    1.7758   -1.0525 H       1  UNL1        0.0486
     34 H          -4.2608    0.1707   -1.6529 H       1  UNL1        0.0486
     35 H           0.4560   -1.2892   -1.5647 H       1  UNL1        0.0651
     36 H           4.9744   -0.2035   -2.5939 H       1  UNL1        0.0625
     37 H           7.3943    0.1276   -2.1654 H       1  UNL1        0.0619
     38 H           8.2292    0.2550    0.1830 H       1  UNL1        0.0646
     39 H           4.2632   -0.3213    1.6727 H       1  UNL1        0.0654
@<TRIPOS>BOND
     1     1     2    2
     2     2     3   am
     3     3     4    1
     4     4     5   ar
     5     5     6   ar
     6     6     7   ar
     7     7     8    1
     8     8     9    1
     9     9    10    1
    10    10    11    1
    11    11    12    1
    12    12    13    1
    13     7    14   ar
    14    14    15    1
    15    14    16   ar
    16     2    17    1
    17    17    18   ar
    18    18    19   ar
    19    19    20   ar
    20    20    21   ar
    21    21    22    1
    22    21    23   ar
    23    16     4   ar
    24    23    17   ar
    25    13     8    1
    26     3    24    1
    27     5    25    1
    28     6    26    1
    29     9    27    1
    30     9    28    1
    31    10    29    1
    32    10    30    1
    33    12    31    1
    34    12    32    1
    35    13    33    1
    36    13    34    1
    37    16    35    1
    38    18    36    1
    39    19    37    1
    40    20    38    1
    41    23    39    1
