@<TRIPOS>MOLECULE
*****
 33 35 0 0 0
SMALL
GASTEIGER

@<TRIPOS>ATOM
      1 O           0.0205   -2.1047   -0.5126 O.2     1  UNL1       -0.2261
      2 C          -0.1372   -0.9285   -0.2260 C.2     1  UNL1        0.4049
      3 N           0.8170    0.0173    0.0171 N.am    1  UNL1       -0.2510
      4 C           2.2151   -0.1213   -0.0004 C.ar    1  UNL1        0.0401
      5 C           2.8732   -1.3328   -0.2897 C.ar    1  UNL1       -0.0367
      6 C           4.2724   -1.4106   -0.2922 C.ar    1  UNL1       -0.0144
      7 C           4.9810   -0.2670   -0.0035 C.ar    1  UNL1        0.1663
      8 C           4.3471    0.9177    0.2795 C.ar    1  UNL1        0.1680
      9 C           2.9713    1.0238    0.2893 C.ar    1  UNL1        0.0052
     10 O           5.2229    1.9262    0.5371 O.3     1  UNL1       -0.4525
     11 C           6.4819    1.2373    0.3831 C.3     1  UNL1        0.2332
     12 O           6.3347   -0.1560    0.0397 O.3     1  UNL1       -0.4526
     13 O          -1.3520   -0.3365   -0.0952 O.3     1  UNL1       -0.4454
     14 C          -2.4526   -1.2194   -0.3247 C.3     1  UNL1        0.1191
     15 C          -3.7220   -0.4274   -0.1455 C.ar    1  UNL1       -0.0103
     16 C          -4.2963    0.2510   -1.2297 C.ar    1  UNL1       -0.0554
     17 C          -5.4618    1.0000   -1.0586 C.ar    1  UNL1       -0.0614
     18 C          -6.0589    1.0850    0.1978 C.ar    1  UNL1       -0.0617
     19 C          -5.4894    0.4253    1.2853 C.ar    1  UNL1       -0.0614
     20 C          -4.3240   -0.3243    1.1165 C.ar    1  UNL1       -0.0554
     21 H           0.4310    0.9259    0.2353 H       1  UNL1        0.1582
     22 H           2.3184   -2.2383   -0.5182 H       1  UNL1        0.0637
     23 H           4.7795   -2.3428   -0.5148 H       1  UNL1        0.0656
     24 H           2.5080    1.9769    0.5175 H       1  UNL1        0.0674
     25 H           7.0588    1.7340   -0.4056 H       1  UNL1        0.1166
     26 H           7.0384    1.3097    1.3246 H       1  UNL1        0.1166
     27 H          -2.4278   -2.0524    0.3889 H       1  UNL1        0.0749
     28 H          -2.4073   -1.6280   -1.3419 H       1  UNL1        0.0749
     29 H          -3.8365    0.2008   -2.2143 H       1  UNL1        0.0621
     30 H          -5.9022    1.5198   -1.9055 H       1  UNL1        0.0618
     31 H          -6.9657    1.6691    0.3303 H       1  UNL1        0.0618
     32 H          -5.9514    0.4968    2.2666 H       1  UNL1        0.0618
     33 H          -3.8860   -0.8267    1.9762 H       1  UNL1        0.0621
@<TRIPOS>BOND
     1     1     2    2
     2     2     3   am
     3     3     4    1
     4     4     5   ar
     5     5     6   ar
     6     6     7   ar
     7     7     8   ar
     8     8     9   ar
     9     8    10    1
    10    10    11    1
    11    11    12    1
    12     2    13    1
    13    13    14    1
    14    14    15    1
    15    15    16   ar
    16    16    17   ar
    17    17    18   ar
    18    18    19   ar
    19    19    20   ar
    20     9     4   ar
    21    20    15   ar
    22    12     7    1
    23     3    21    1
    24     5    22    1
    25     6    23    1
    26     9    24    1
    27    11    25    1
    28    11    26    1
    29    14    27    1
    30    14    28    1
    31    16    29    1
    32    17    30    1
    33    18    31    1
    34    19    32    1
    35    20    33    1
