@<TRIPOS>MOLECULE
*****
 40 46 0 0 0
SMALL
GASTEIGER

@<TRIPOS>ATOM
      1 SI          4.5637   -0.9030   -1.5709 Si      1  UNL1        0.0000
      2 C           6.4534   -1.1738   -1.4127 C.2     1  UNL1        0.0000
      3 C           6.9333   -0.6379   -0.2689 C.2     1  UNL1        0.0000
      4 C           5.9509   -0.0036    0.5556 C.ar    1  UNL1        0.0000
      5 C           6.0759    0.6404    1.7562 C.ar    1  UNL1        0.0000
      6 S           4.5423    1.2255    2.2959 S.2     1  UNL1        0.0000
      7 C           3.7076    0.6072    0.9098 C.ar    1  UNL1        0.0000
      8 C           4.6081   -0.0136    0.0927 C.ar    1  UNL1        0.0000
      9 C           2.2658    0.7834    0.7869 C.ar    1  UNL1        0.0000
     10 C           1.6812    2.0404    0.7304 C.ar    1  UNL1        0.0000
     11 N           0.3510    2.2599    0.5934 N.ar    1  UNL1        0.0000
     12 C          -0.4627    1.1932    0.5129 C.ar    1  UNL1        0.0000
     13 C          -1.8305    1.3981    0.3746 C.ar    1  UNL1        0.0000
     14 C          -2.7278    0.3146    0.2877 C.ar    1  UNL1        0.0000
     15 C          -2.2118   -0.9819    0.3441 C.ar    1  UNL1        0.0000
     16 C          -0.8428   -1.2338    0.4814 C.ar    1  UNL1        0.0000
     17 C           0.0262   -0.1292    0.5640 C.ar    1  UNL1        0.0000
     18 C           1.4097   -0.3148    0.7011 C.ar    1  UNL1        0.0000
     19 N          -3.2709   -1.8665    0.2434 N.ar    1  UNL1        0.0000
     20 C          -4.4678   -1.1932    0.1199 C.ar    1  UNL1        0.0000
     21 C          -5.7861   -1.6655   -0.0096 C.ar    1  UNL1        0.0000
     22 C          -6.8416   -0.7421   -0.1196 C.ar    1  UNL1        0.0000
     23 C          -6.5085    0.6326   -0.0929 C.ar    1  UNL1        0.0000
     24 N          -7.3787    1.6576   -0.1851 N.ar    1  UNL1        0.0000
     25 S          -6.4707    3.0653   -0.1006 S.2     1  UNL1        0.0000
     26 N          -4.9265    2.4328    0.0562 N.ar    1  UNL1        0.0000
     27 C          -5.1477    1.1281    0.0409 C.ar    1  UNL1        0.0000
     28 C          -4.1149    0.1426    0.1490 C.ar    1  UNL1        0.0000
     29 H           3.8367   -2.1975   -1.5325 H       1  UNL1        0.0000
     30 H           4.2526   -0.0253   -2.7256 H       1  UNL1        0.0000
     31 H           7.0039   -1.6941   -2.1798 H       1  UNL1        0.0000
     32 H           7.9796   -0.6783    0.0117 H       1  UNL1        0.0000
     33 H           6.9625    0.8089    2.3513 H       1  UNL1        0.0000
     34 H           2.2817    2.9451    0.7847 H       1  UNL1        0.0000
     35 H          -2.2051    2.4180    0.3352 H       1  UNL1        0.0000
     36 H          -0.4654   -2.2511    0.5241 H       1  UNL1        0.0000
     37 H           1.8203   -1.3206    0.7554 H       1  UNL1        0.0000
     38 H          -3.1772   -2.8721    0.2591 H       1  UNL1        0.0000
     39 H          -5.9980   -2.7319   -0.0253 H       1  UNL1        0.0000
     40 H          -7.8719   -1.0639   -0.2209 H       1  UNL1        0.0000
@<TRIPOS>BOND
     1     1     2    1
     2     2     3    2
     3     3     4    1
     4     4     5   ar
     5     5     6   ar
     6     6     7   ar
     7     7     8   ar
     8     7     9    1
     9     9    10   ar
    10    10    11   ar
    11    11    12   ar
    12    12    13   ar
    13    13    14   ar
    14    14    15   ar
    15    15    16   ar
    16    16    17   ar
    17    17    18   ar
    18    15    19   ar
    19    19    20   ar
    20    20    21   ar
    21    21    22   ar
    22    22    23   ar
    23    23    24   ar
    24    24    25   ar
    25    25    26   ar
    26    26    27   ar
    27    27    28   ar
    28     8     1    1
    29    18     9   ar
    30    28    20   ar
    31     8     4   ar
    32    17    12   ar
    33    27    23   ar
    34    28    14   ar
    35     1    29    1
    36     1    30    1
    37     2    31    1
    38     3    32    1
    39     5    33    1
    40    10    34    1
    41    13    35    1
    42    16    36    1
    43    18    37    1
    44    19    38    1
    45    21    39    1
    46    22    40    1
