@<TRIPOS>MOLECULE
*****
 48 50 0 0 0
SMALL
GASTEIGER

@<TRIPOS>ATOM
      1 O           1.9925    2.3132   -0.0092 O.2     1  UNL1       -0.2702
      2 C           1.7198    1.1184   -0.0327 C.2     1  UNL1        0.2443
      3 N           2.6445    0.1284   -0.3042 N.am    1  UNL1       -0.3085
      4 C           4.0538    0.4438   -0.4898 C.3     1  UNL1        0.0234
      5 C           4.7457    0.6850    0.8637 C.3     1  UNL1       -0.0345
      6 C           6.2455    0.3789    0.8482 C.3     1  UNL1       -0.0514
      7 C           6.8550    0.5896   -0.5305 C.3     1  UNL1       -0.0529
      8 C           6.2113   -0.3168   -1.5811 C.3     1  UNL1       -0.0514
      9 C           4.7520   -0.6642   -1.2788 C.3     1  UNL1       -0.0345
     10 C           0.3380    0.6603    0.2823 C.ar    1  UNL1        0.0367
     11 C          -0.4631    1.4722    1.0936 C.ar    1  UNL1       -0.0493
     12 C          -1.7662    1.0826    1.4145 C.ar    1  UNL1       -0.0566
     13 C          -2.2928   -0.1171    0.9157 C.ar    1  UNL1       -0.0333
     14 C          -3.7006   -0.5469    1.2794 C.3     1  UNL1        0.0242
     15 N          -4.5088   -0.9407    0.1158 N.3     1  UNL1       -0.2938
     16 C          -5.7235   -1.6613    0.5550 C.3     1  UNL1        0.0228
     17 C          -6.8312   -1.6120   -0.5063 C.3     1  UNL1        0.0604
     18 O          -7.3025   -0.2787   -0.7446 O.3     1  UNL1       -0.3772
     19 C          -6.2965    0.7210   -0.5306 C.3     1  UNL1        0.0604
     20 C          -4.8665    0.2030   -0.7535 C.3     1  UNL1        0.0228
     21 C          -1.4854   -0.9236    0.0983 C.ar    1  UNL1       -0.0566
     22 C          -0.1819   -0.5359   -0.2249 C.ar    1  UNL1       -0.0493
     23 H           2.4117   -0.8203   -0.0439 H       1  UNL1        0.1493
     24 H           4.1067    1.3707   -1.0766 H       1  UNL1        0.0498
     25 H           4.2779    0.0850    1.6550 H       1  UNL1        0.0283
     26 H           4.5903    1.7318    1.1548 H       1  UNL1        0.0283
     27 H           6.7557    1.0048    1.5891 H       1  UNL1        0.0266
     28 H           6.4060   -0.6621    1.1560 H       1  UNL1        0.0266
     29 H           6.7230    1.6384   -0.8251 H       1  UNL1        0.0265
     30 H           7.9353    0.4083   -0.5010 H       1  UNL1        0.0265
     31 H           6.7828   -1.2490   -1.6677 H       1  UNL1        0.0266
     32 H           6.2809    0.1751   -2.5588 H       1  UNL1        0.0266
     33 H           4.7135   -1.6004   -0.7056 H       1  UNL1        0.0283
     34 H           4.2225   -0.8652   -2.2183 H       1  UNL1        0.0283
     35 H          -0.0713    2.4114    1.4799 H       1  UNL1        0.0625
     36 H          -2.3670    1.7279    2.0516 H       1  UNL1        0.0621
     37 H          -4.2084    0.2451    1.8455 H       1  UNL1        0.0476
     38 H          -3.5921   -1.4006    1.9622 H       1  UNL1        0.0476
     39 H          -5.4619   -2.7037    0.7671 H       1  UNL1        0.0449
     40 H          -6.1185   -1.2175    1.4788 H       1  UNL1        0.0449
     41 H          -6.4839   -2.0313   -1.4580 H       1  UNL1        0.0572
     42 H          -7.6899   -2.2089   -0.1825 H       1  UNL1        0.0572
     43 H          -6.5075    1.5474   -1.2169 H       1  UNL1        0.0572
     44 H          -6.4129    1.1079    0.4885 H       1  UNL1        0.0572
     45 H          -4.1564    1.0324   -0.6650 H       1  UNL1        0.0449
     46 H          -4.7902   -0.1535   -1.7886 H       1  UNL1        0.0449
     47 H          -1.8841   -1.8528   -0.3058 H       1  UNL1        0.0621
     48 H           0.3986   -1.1631   -0.8949 H       1  UNL1        0.0625
@<TRIPOS>BOND
     1     1     2    2
     2     2     3   am
     3     3     4    1
     4     4     5    1
     5     5     6    1
     6     6     7    1
     7     7     8    1
     8     8     9    1
     9     2    10    1
    10    10    11   ar
    11    11    12   ar
    12    12    13   ar
    13    13    14    1
    14    14    15    1
    15    15    16    1
    16    16    17    1
    17    17    18    1
    18    18    19    1
    19    19    20    1
    20    13    21   ar
    21    21    22   ar
    22     9     4    1
    23    22    10   ar
    24    20    15    1
    25     3    23    1
    26     4    24    1
    27     5    25    1
    28     5    26    1
    29     6    27    1
    30     6    28    1
    31     7    29    1
    32     7    30    1
    33     8    31    1
    34     8    32    1
    35     9    33    1
    36     9    34    1
    37    11    35    1
    38    12    36    1
    39    14    37    1
    40    14    38    1
    41    16    39    1
    42    16    40    1
    43    17    41    1
    44    17    42    1
    45    19    43    1
    46    19    44    1
    47    20    45    1
    48    20    46    1
    49    21    47    1
    50    22    48    1
