@<TRIPOS>MOLECULE
*****
 32 34 0 0 0
SMALL
GASTEIGER

@<TRIPOS>ATOM
      1 O          -1.4940   -0.8081    1.9205 O.2     1  UNL1       -0.2699
      2 C          -0.9660   -0.3222    0.9278 C.2     1  UNL1        0.2484
      3 N          -1.6024    0.1742   -0.1955 N.am    1  UNL1       -0.2815
      4 C          -2.9858    0.1581   -0.4732 C.ar    1  UNL1        0.0337
      5 C          -3.4098    0.7938   -1.6482 C.ar    1  UNL1       -0.0405
      6 C          -4.7624    0.8185   -1.9988 C.ar    1  UNL1       -0.0600
      7 C          -5.7048    0.2052   -1.1785 C.ar    1  UNL1       -0.0616
      8 C          -5.2929   -0.4322   -0.0107 C.ar    1  UNL1       -0.0600
      9 C          -3.9389   -0.4568    0.3401 C.ar    1  UNL1       -0.0405
     10 C           0.5195   -0.1993    0.9131 C.ar    1  UNL1        0.0407
     11 C           1.1810    0.0496    2.1242 C.ar    1  UNL1       -0.0459
     12 C           2.5724    0.1657    2.1548 C.ar    1  UNL1       -0.0156
     13 C           3.3048    0.0197    0.9790 C.ar    1  UNL1        0.1621
     14 C           2.6470   -0.2194   -0.2327 C.ar    1  UNL1        0.1628
     15 C           1.2590   -0.3498   -0.2669 C.ar    1  UNL1       -0.0042
     16 O           3.3032   -0.3508   -1.4303 O.3     1  UNL1       -0.4849
     17 C           4.6549    0.1169   -1.3418 C.3     1  UNL1        0.1237
     18 C           5.3219   -0.3982   -0.0773 C.3     1  UNL1        0.1237
     19 O           4.6678    0.1233    1.0852 O.3     1  UNL1       -0.4849
     20 H          -1.0302    0.6613   -0.8721 H       1  UNL1        0.1551
     21 H          -2.6957    1.2806   -2.3069 H       1  UNL1        0.0636
     22 H          -5.0788    1.3164   -2.9116 H       1  UNL1        0.0618
     23 H          -6.7576    0.2220   -1.4471 H       1  UNL1        0.0618
     24 H          -6.0234   -0.9148    0.6337 H       1  UNL1        0.0618
     25 H          -3.6619   -0.9693    1.2559 H       1  UNL1        0.0636
     26 H           0.6117    0.1500    3.0467 H       1  UNL1        0.0626
     27 H           3.0827    0.3537    3.0956 H       1  UNL1        0.0655
     28 H           0.7769   -0.5871   -1.2104 H       1  UNL1        0.0663
     29 H           4.6457    1.2135   -1.3724 H       1  UNL1        0.0731
     30 H           5.1890   -0.2448   -2.2260 H       1  UNL1        0.0731
     31 H           6.3673   -0.0760   -0.0423 H       1  UNL1        0.0731
     32 H           5.2998   -1.4940   -0.0286 H       1  UNL1        0.0731
@<TRIPOS>BOND
     1     1     2    2
     2     2     3   am
     3     3     4    1
     4     4     5   ar
     5     5     6   ar
     6     6     7   ar
     7     7     8   ar
     8     8     9   ar
     9     2    10    1
    10    10    11   ar
    11    11    12   ar
    12    12    13   ar
    13    13    14   ar
    14    14    15   ar
    15    14    16    1
    16    16    17    1
    17    17    18    1
    18    18    19    1
    19     9     4   ar
    20    15    10   ar
    21    19    13    1
    22     3    20    1
    23     5    21    1
    24     6    22    1
    25     7    23    1
    26     8    24    1
    27     9    25    1
    28    11    26    1
    29    12    27    1
    30    15    28    1
    31    17    29    1
    32    17    30    1
    33    18    31    1
    34    18    32    1
