@<TRIPOS>MOLECULE
*****
 40 42 0 0 0
SMALL
GASTEIGER

@<TRIPOS>ATOM
      1 O          -2.6244   -0.1725   -1.2118 O.2     1  UNL1       -0.2521
      2 C          -2.8724    0.7103   -0.4019 C.2     1  UNL1        0.3096
      3 N          -4.0321    0.7827    0.3600 N.am    1  UNL1       -0.2692
      4 C          -5.1547   -0.0717    0.3094 C.ar    1  UNL1        0.0348
      5 C          -5.3205   -1.0949   -0.6256 C.ar    1  UNL1       -0.0404
      6 C          -6.4703   -1.8920   -0.6091 C.ar    1  UNL1       -0.0600
      7 C          -7.4650   -1.6714    0.3402 C.ar    1  UNL1       -0.0616
      8 C          -7.3128   -0.6510    1.2741 C.ar    1  UNL1       -0.0600
      9 C          -6.1644    0.1453    1.2574 C.ar    1  UNL1       -0.0404
     10 N          -2.0429    1.7742   -0.1106 N.am    1  UNL1       -0.2468
     11 C          -0.7941    2.0121   -0.6277 C.ar    1  UNL1        0.1889
     12 N          -0.1361    3.1200   -0.3673 N.ar    1  UNL1       -0.1256
     13 N           1.1020    3.1488   -0.9762 N.ar    1  UNL1       -0.1438
     14 C           1.3420    2.0489   -1.6620 C.ar    1  UNL1        0.1135
     15 C           2.5826    1.7693   -2.4435 C.3     1  UNL1        0.0446
     16 S           4.0689    1.6042   -1.4018 S.3     1  UNL1       -0.1492
     17 C           3.5964    0.1366   -0.4328 C.3     1  UNL1        0.0206
     18 C           4.7718   -0.4139    0.3371 C.ar    1  UNL1       -0.0193
     19 C           5.0391    0.0938    1.6227 C.ar    1  UNL1       -0.0564
     20 C           6.1214   -0.3749    2.3697 C.ar    1  UNL1       -0.0614
     21 C           6.9589   -1.3540    1.8435 C.ar    1  UNL1       -0.0604
     22 C           6.7160   -1.8616    0.5678 C.ar    1  UNL1       -0.0431
     23 C           5.6327   -1.3937   -0.1840 C.ar    1  UNL1        0.0449
     24 CL          5.4069   -2.0678   -1.7597 Cl      1  UNL1       -0.0832
     25 S           0.0522    0.9124   -1.6133 S.2     1  UNL1       -0.0345
     26 H          -4.0447    1.4718    1.0962 H       1  UNL1        0.1564
     27 H          -4.5767   -1.3001   -1.3888 H       1  UNL1        0.0636
     28 H          -6.5846   -2.6859   -1.3432 H       1  UNL1        0.0618
     29 H          -8.3562   -2.2933    0.3494 H       1  UNL1        0.0618
     30 H          -8.0874   -0.4741    2.0158 H       1  UNL1        0.0618
     31 H          -6.0739    0.9346    1.9988 H       1  UNL1        0.0636
     32 H          -2.3972    2.5433    0.4339 H       1  UNL1        0.1584
     33 H           2.4879    0.8700   -3.0612 H       1  UNL1        0.0446
     34 H           2.7572    2.6046   -3.1307 H       1  UNL1        0.0446
     35 H           2.8064    0.4168    0.2733 H       1  UNL1        0.0425
     36 H           3.1672   -0.6281   -1.0874 H       1  UNL1        0.0425
     37 H           4.4039    0.8704    2.0466 H       1  UNL1        0.0621
     38 H           6.3135    0.0310    3.3601 H       1  UNL1        0.0618
     39 H           7.8044   -1.7170    2.4222 H       1  UNL1        0.0618
     40 H           7.3793   -2.6207    0.1606 H       1  UNL1        0.0632
@<TRIPOS>BOND
     1     1     2    2
     2     2     3   am
     3     3     4    1
     4     4     5   ar
     5     5     6   ar
     6     6     7   ar
     7     7     8   ar
     8     8     9   ar
     9     2    10   am
    10    10    11    1
    11    11    12   ar
    12    12    13   ar
    13    13    14   ar
    14    14    15    1
    15    15    16    1
    16    16    17    1
    17    17    18    1
    18    18    19   ar
    19    19    20   ar
    20    20    21   ar
    21    21    22   ar
    22    22    23   ar
    23    23    24    1
    24    14    25   ar
    25     9     4   ar
    26    25    11   ar
    27    23    18   ar
    28     3    26    1
    29     5    27    1
    30     6    28    1
    31     7    29    1
    32     8    30    1
    33     9    31    1
    34    10    32    1
    35    15    33    1
    36    15    34    1
    37    17    35    1
    38    17    36    1
    39    19    37    1
    40    20    38    1
    41    21    39    1
    42    22    40    1
