@<TRIPOS>MOLECULE
*****
 42 45 0 0 0
SMALL
GASTEIGER

@<TRIPOS>ATOM
      1 O           1.6750    1.5082   -2.6328 O.2     1  UNL1       -0.2699
      2 C           1.4414    1.0162   -1.5348 C.2     1  UNL1        0.2484
      3 N           0.2922    0.3609   -1.1564 N.am    1  UNL1       -0.2800
      4 C          -0.8334    0.0348   -1.9417 C.ar    1  UNL1        0.0549
      5 C          -0.9214    0.2634   -3.3147 C.ar    1  UNL1       -0.0387
      6 C          -2.0687   -0.1177   -4.0130 C.ar    1  UNL1       -0.0599
      7 C          -3.1280   -0.7267   -3.3437 C.ar    1  UNL1       -0.0599
      8 C          -3.0478   -0.9584   -1.9692 C.ar    1  UNL1       -0.0388
      9 C          -1.9042   -0.5848   -1.2490 C.ar    1  UNL1        0.0513
     10 N          -1.7849   -0.7700    0.1544 N.pl3   1  UNL1       -0.3241
     11 C          -2.5152    0.2909    0.8944 C.3     1  UNL1        0.0357
     12 C          -2.6224   -0.1002    2.3760 C.3     1  UNL1        0.0634
     13 O          -3.3703   -1.3072    2.5967 O.3     1  UNL1       -0.3767
     14 C          -3.3775   -2.1900    1.4643 C.3     1  UNL1        0.0634
     15 C          -2.0823   -2.1413    0.6385 C.3     1  UNL1        0.0357
     16 C           2.4689    1.1577   -0.4618 C.ar    1  UNL1        0.0407
     17 C           3.3162    2.2890   -0.4954 C.ar    1  UNL1       -0.0459
     18 C           4.2991    2.4776    0.4817 C.ar    1  UNL1       -0.0154
     19 C           4.4133    1.5193    1.4645 C.ar    1  UNL1        0.1663
     20 C           3.6007    0.4095    1.4930 C.ar    1  UNL1        0.1669
     21 C           2.6222    0.1928    0.5452 C.ar    1  UNL1       -0.0040
     22 O           3.8863   -0.4146    2.5370 O.3     1  UNL1       -0.4526
     23 C           4.9758    0.3000    3.1584 C.3     1  UNL1        0.2332
     24 O           5.3080    1.5332    2.4878 O.3     1  UNL1       -0.4526
     25 H           0.1591    0.0879   -0.1872 H       1  UNL1        0.1552
     26 H          -0.1106    0.7285   -3.8658 H       1  UNL1        0.0637
     27 H          -2.1310    0.0625   -5.0833 H       1  UNL1        0.0618
     28 H          -4.0198   -1.0178   -3.8929 H       1  UNL1        0.0618
     29 H          -3.8933   -1.4195   -1.4697 H       1  UNL1        0.0637
     30 H          -1.9743    1.2399    0.8047 H       1  UNL1        0.0486
     31 H          -3.5258    0.4279    0.4882 H       1  UNL1        0.0486
     32 H          -1.6248   -0.2462    2.8064 H       1  UNL1        0.0575
     33 H          -3.1124    0.6970    2.9437 H       1  UNL1        0.0575
     34 H          -4.2451   -1.9323    0.8472 H       1  UNL1        0.0575
     35 H          -3.5409   -3.2041    1.8431 H       1  UNL1        0.0575
     36 H          -1.2460   -2.4321    1.2859 H       1  UNL1        0.0486
     37 H          -2.1185   -2.8734   -0.1771 H       1  UNL1        0.0486
     38 H           3.2037    3.0248   -1.2906 H       1  UNL1        0.0626
     39 H           4.9508    3.3439    0.4635 H       1  UNL1        0.0655
     40 H           2.0252   -0.7108    0.5826 H       1  UNL1        0.0663
     41 H           4.6995    0.5275    4.1943 H       1  UNL1        0.1166
     42 H           5.8611   -0.3463    3.1640 H       1  UNL1        0.1166
@<TRIPOS>BOND
     1     1     2    2
     2     2     3   am
     3     3     4    1
     4     4     5   ar
     5     5     6   ar
     6     6     7   ar
     7     7     8   ar
     8     8     9   ar
     9     9    10    1
    10    10    11    1
    11    11    12    1
    12    12    13    1
    13    13    14    1
    14    14    15    1
    15     2    16    1
    16    16    17   ar
    17    17    18   ar
    18    18    19   ar
    19    19    20   ar
    20    20    21   ar
    21    20    22    1
    22    22    23    1
    23    23    24    1
    24     9     4   ar
    25    15    10    1
    26    21    16   ar
    27    24    19    1
    28     3    25    1
    29     5    26    1
    30     6    27    1
    31     7    28    1
    32     8    29    1
    33    11    30    1
    34    11    31    1
    35    12    32    1
    36    12    33    1
    37    14    34    1
    38    14    35    1
    39    15    36    1
    40    15    37    1
    41    17    38    1
    42    18    39    1
    43    21    40    1
    44    23    41    1
    45    23    42    1
