@<TRIPOS>MOLECULE
*****
 27 28 0 0 0
SMALL
GASTEIGER

@<TRIPOS>ATOM
      1 O           0.2987    1.2438   -1.7696 O.2     1  UNL1       -0.2699
      2 C           0.5388    0.5541   -0.7855 C.2     1  UNL1        0.2483
      3 N          -0.3826   -0.0424    0.0478 N.am    1  UNL1       -0.2786
      4 C          -1.7885    0.0549   -0.0016 C.ar    1  UNL1        0.0756
      5 C          -2.4930    0.8559   -0.8985 C.ar    1  UNL1       -0.0369
      6 C          -3.8913    0.8851   -0.8639 C.ar    1  UNL1       -0.0598
      7 C          -4.5918    0.1168    0.0669 C.ar    1  UNL1       -0.0582
      8 C          -3.8989   -0.6860    0.9716 C.ar    1  UNL1       -0.0183
      9 C          -2.5060   -0.7103    0.9317 C.ar    1  UNL1        0.1380
     10 O          -1.7978   -1.4905    1.8134 O.3     1  UNL1       -0.5049
     11 C           1.9658    0.2827   -0.4449 C.ar    1  UNL1        0.0371
     12 C           2.3959    0.1239    0.8803 C.ar    1  UNL1       -0.0482
     13 C           3.7455   -0.1225    1.1524 C.ar    1  UNL1       -0.0427
     14 C           4.6634   -0.2014    0.1051 C.ar    1  UNL1        0.0410
     15 CL          6.3220   -0.5049    0.4457 Cl      1  UNL1       -0.0835
     16 C           4.2475   -0.0285   -1.2138 C.ar    1  UNL1       -0.0427
     17 C           2.8999    0.2188   -1.4885 C.ar    1  UNL1       -0.0482
     18 H          -0.0600   -0.6905    0.7589 H       1  UNL1        0.1552
     19 H          -1.9834    1.4698   -1.6344 H       1  UNL1        0.0637
     20 H          -4.4318    1.5125   -1.5689 H       1  UNL1        0.0618
     21 H          -5.6785    0.1472    0.0847 H       1  UNL1        0.0619
     22 H          -4.4559   -1.2769    1.6913 H       1  UNL1        0.0655
     23 H          -2.4357   -1.9679    2.3708 H       1  UNL1        0.2922
     24 H           1.7025    0.2173    1.7121 H       1  UNL1        0.0625
     25 H           4.0755   -0.2418    2.1814 H       1  UNL1        0.0632
     26 H           4.9628   -0.0800   -2.0305 H       1  UNL1        0.0632
     27 H           2.5772    0.3608   -2.5186 H       1  UNL1        0.0625
@<TRIPOS>BOND
     1     1     2    2
     2     2     3   am
     3     3     4    1
     4     4     5   ar
     5     5     6   ar
     6     6     7   ar
     7     7     8   ar
     8     8     9   ar
     9     9    10    1
    10     2    11    1
    11    11    12   ar
    12    12    13   ar
    13    13    14   ar
    14    14    15    1
    15    14    16   ar
    16    16    17   ar
    17     9     4   ar
    18    17    11   ar
    19     3    18    1
    20     5    19    1
    21     6    20    1
    22     7    21    1
    23     8    22    1
    24    10    23    1
    25    12    24    1
    26    13    25    1
    27    16    26    1
    28    17    27    1
