@<TRIPOS>MOLECULE
*****
 34 36 0 0 0
SMALL
GASTEIGER

@<TRIPOS>ATOM
      1 O           2.8757    1.9364   -1.4661 O.2     1  UNL1       -0.2665
      2 C           2.5450    1.0187   -0.7214 C.2     1  UNL1        0.2837
      3 N           1.2821    0.8842   -0.1687 N.am    1  UNL1       -0.2760
      4 C           0.1560    1.7218   -0.3351 C.ar    1  UNL1        0.0765
      5 C           0.1397    2.8732   -1.1226 C.ar    1  UNL1       -0.0369
      6 C          -1.0259    3.6425   -1.2269 C.ar    1  UNL1       -0.0598
      7 C          -2.1835    3.2732   -0.5426 C.ar    1  UNL1       -0.0582
      8 C          -2.1841    2.1271    0.2475 C.ar    1  UNL1       -0.0175
      9 C          -1.0246    1.3504    0.3339 C.ar    1  UNL1        0.1495
     10 O          -0.9966    0.2319    1.1431 O.3     1  UNL1       -0.4542
     11 C          -1.8418   -0.8045    0.8104 C.ar    1  UNL1        0.1285
     12 C          -2.3690   -1.5360    1.8763 C.ar    1  UNL1       -0.0193
     13 C          -3.2055   -2.6252    1.6303 C.ar    1  UNL1       -0.0583
     14 C          -3.5045   -2.9912    0.3182 C.ar    1  UNL1       -0.0615
     15 C          -2.9633   -2.2727   -0.7481 C.ar    1  UNL1       -0.0583
     16 C          -2.1260   -1.1823   -0.5048 C.ar    1  UNL1       -0.0193
     17 C           3.4712   -0.0422   -0.3418 C.ar    1  UNL1        0.1910
     18 C           3.3571   -1.1821    0.4398 C.ar    1  UNL1       -0.0101
     19 C           4.6231   -1.8214    0.4279 C.ar    1  UNL1       -0.0086
     20 C           5.4379   -1.0418   -0.3570 C.ar    1  UNL1        0.1708
     21 BR          7.2649   -1.4017   -0.7422 Br      1  UNL1       -0.0085
     22 O           4.7535    0.0316   -0.8257 O.2     1  UNL1       -0.4436
     23 H           1.1134    0.0939    0.4396 H       1  UNL1        0.1553
     24 H           1.0160    3.2076   -1.6690 H       1  UNL1        0.0637
     25 H          -1.0225    4.5391   -1.8431 H       1  UNL1        0.0618
     26 H          -3.0805    3.8820   -0.6221 H       1  UNL1        0.0619
     27 H          -3.0797    1.8432    0.7926 H       1  UNL1        0.0655
     28 H          -2.1345   -1.2542    2.8993 H       1  UNL1        0.0654
     29 H          -3.6231   -3.1888    2.4607 H       1  UNL1        0.0619
     30 H          -4.1563   -3.8399    0.1257 H       1  UNL1        0.0618
     31 H          -3.1908   -2.5640   -1.7706 H       1  UNL1        0.0619
     32 H          -1.7018   -0.6450   -1.3486 H       1  UNL1        0.0654
     33 H           2.4750   -1.5270    0.9605 H       1  UNL1        0.0657
     34 H           4.9035   -2.7371    0.9294 H       1  UNL1        0.0661
@<TRIPOS>BOND
     1     1     2    2
     2     2     3   am
     3     3     4    1
     4     4     5   ar
     5     5     6   ar
     6     6     7   ar
     7     7     8   ar
     8     8     9   ar
     9     9    10    1
    10    10    11    1
    11    11    12   ar
    12    12    13   ar
    13    13    14   ar
    14    14    15   ar
    15    15    16   ar
    16     2    17    1
    17    17    18   ar
    18    18    19   ar
    19    19    20   ar
    20    20    21    1
    21    20    22   ar
    22     9     4   ar
    23    16    11   ar
    24    22    17   ar
    25     3    23    1
    26     5    24    1
    27     6    25    1
    28     7    26    1
    29     8    27    1
    30    12    28    1
    31    13    29    1
    32    14    30    1
    33    15    31    1
    34    16    32    1
    35    18    33    1
    36    19    34    1
