@<TRIPOS>MOLECULE
*****
 31 33 0 0 0
SMALL
GASTEIGER

@<TRIPOS>ATOM
      1 O          -1.5731   -2.2945   -0.9626 O.2     1  UNL1       -0.2663
      2 C          -0.8784   -1.3373   -0.6329 C.2     1  UNL1        0.2876
      3 N          -1.3904   -0.1199   -0.2433 N.am    1  UNL1       -0.2637
      4 C          -2.7230    0.2625   -0.1005 C.ar    1  UNL1        0.1252
      5 C          -3.8121   -0.5766   -0.2861 C.ar    1  UNL1       -0.0215
      6 C          -5.0952   -0.0608   -0.1052 C.ar    1  UNL1       -0.0571
      7 C          -5.2528    1.2701    0.2554 C.ar    1  UNL1       -0.0435
      8 C          -4.1126    2.0339    0.4224 C.ar    1  UNL1        0.0297
      9 N          -2.8574    1.5599    0.2547 N.ar    1  UNL1       -0.2401
     10 C           0.5716   -1.3999   -0.6426 C.ar    1  UNL1        0.2251
     11 O           1.1304   -2.4422   -1.3368 O.2     1  UNL1       -0.3494
     12 N           2.5134   -2.3712   -1.2812 N.ar    1  UNL1       -0.0822
     13 C           2.7758   -1.2979   -0.5392 C.ar    1  UNL1        0.0875
     14 C           1.5973   -0.6491   -0.0977 C.ar    1  UNL1        0.0271
     15 C           1.6265    0.5631    0.7629 C.3     1  UNL1       -0.0221
     16 C           3.0128    0.7624    1.4048 C.3     1  UNL1       -0.0485
     17 C           4.1555    0.5511    0.3962 C.3     1  UNL1       -0.0472
     18 C           4.1551   -0.8743   -0.1841 C.3     1  UNL1       -0.0068
     19 H          -0.7694    0.6548   -0.0768 H       1  UNL1        0.1566
     20 H          -3.7039   -1.6176   -0.5654 H       1  UNL1        0.0652
     21 H          -5.9626   -0.6998   -0.2470 H       1  UNL1        0.0619
     22 H          -6.2375    1.6992    0.4022 H       1  UNL1        0.0633
     23 H          -4.1786    3.0809    0.7046 H       1  UNL1        0.0830
     24 H           0.8720    0.4956    1.5543 H       1  UNL1        0.0315
     25 H           1.3883    1.4397    0.1485 H       1  UNL1        0.0315
     26 H           3.1360    0.0550    2.2350 H       1  UNL1        0.0269
     27 H           3.0737    1.7698    1.8320 H       1  UNL1        0.0269
     28 H           5.1204    0.7491    0.8764 H       1  UNL1        0.0269
     29 H           4.0486    1.2781   -0.4193 H       1  UNL1        0.0269
     30 H           4.8124   -0.9149   -1.0597 H       1  UNL1        0.0329
     31 H           4.5573   -1.5691    0.5631 H       1  UNL1        0.0329
@<TRIPOS>BOND
     1     1     2    2
     2     2     3   am
     3     3     4    1
     4     4     5   ar
     5     5     6   ar
     6     6     7   ar
     7     7     8   ar
     8     8     9   ar
     9     2    10    1
    10    10    11   ar
    11    11    12   ar
    12    12    13   ar
    13    13    14   ar
    14    14    15    1
    15    15    16    1
    16    16    17    1
    17    17    18    1
    18     9     4   ar
    19    14    10   ar
    20    18    13    1
    21     3    19    1
    22     5    20    1
    23     6    21    1
    24     7    22    1
    25     8    23    1
    26    15    24    1
    27    15    25    1
    28    16    26    1
    29    16    27    1
    30    17    28    1
    31    17    29    1
    32    18    30    1
    33    18    31    1
