@<TRIPOS>MOLECULE
*****
 35 37 0 0 0
SMALL
GASTEIGER

@<TRIPOS>ATOM
      1 O          -2.3660    1.2283    2.3731 O.2     1  UNL1       -0.2698
      2 C          -2.6528    0.5315    1.4057 C.2     1  UNL1        0.2494
      3 N          -1.8618    0.3023    0.3052 N.am    1  UNL1       -0.2649
      4 C          -0.6257    0.8583    0.0855 C.ar    1  UNL1        0.1470
      5 C           0.0976    1.7929    0.8562 C.ar    1  UNL1       -0.0021
      6 C           1.2689    2.0012    0.1673 C.ar    1  UNL1        0.0277
      7 N           1.1979    1.2010   -0.9361 N.ar    1  UNL1       -0.2653
      8 C           2.1936    1.0892   -1.9938 C.3     1  UNL1        0.0666
      9 C           3.3507    0.2108   -1.5822 C.ar    1  UNL1       -0.0260
     10 C           4.6223    0.7630   -1.3560 C.ar    1  UNL1       -0.0541
     11 C           5.6885   -0.0545   -0.9765 C.ar    1  UNL1       -0.0261
     12 C           5.4865   -1.4207   -0.8225 C.ar    1  UNL1        0.1234
     13 F           6.5118   -2.2019   -0.4585 F       1  UNL1       -0.2055
     14 C           4.2373   -1.9876   -1.0405 C.ar    1  UNL1       -0.0261
     15 C           3.1695   -1.1738   -1.4207 C.ar    1  UNL1       -0.0541
     16 N           0.0418    0.5076   -1.0176 N.ar    1  UNL1       -0.1556
     17 C          -3.9641   -0.1735    1.4043 C.ar    1  UNL1        0.0399
     18 C          -4.5200   -0.5359    2.6322 C.ar    1  UNL1       -0.0315
     19 C          -5.7389   -1.1866    2.6276 C.ar    1  UNL1        0.0283
     20 N          -6.4229   -1.4838    1.5019 N.ar    1  UNL1       -0.2632
     21 C          -5.8738   -1.1024    0.3294 C.ar    1  UNL1        0.0283
     22 C          -4.6585   -0.4489    0.2252 C.ar    1  UNL1       -0.0315
     23 H          -2.1179   -0.3645   -0.4065 H       1  UNL1        0.1566
     24 H          -0.1915    2.2549    1.7897 H       1  UNL1        0.0668
     25 H           2.1262    2.6266    0.3719 H       1  UNL1        0.0827
     26 H           1.7055    0.6847   -2.8882 H       1  UNL1        0.0558
     27 H           2.5246    2.1066   -2.2322 H       1  UNL1        0.0558
     28 H           4.7930    1.8313   -1.4714 H       1  UNL1        0.0622
     29 H           6.6741    0.3642   -0.7986 H       1  UNL1        0.0646
     30 H           4.1013   -3.0565   -0.9104 H       1  UNL1        0.0646
     31 H           2.1898   -1.6220   -1.5829 H       1  UNL1        0.0622
     32 H          -4.0147   -0.3176    3.5676 H       1  UNL1        0.0640
     33 H          -6.2138   -1.4946    3.5550 H       1  UNL1        0.0830
     34 H          -6.4619   -1.3391   -0.5534 H       1  UNL1        0.0830
     35 H          -4.2964   -0.1457   -0.7498 H       1  UNL1        0.0640
@<TRIPOS>BOND
     1     1     2    2
     2     2     3   am
     3     3     4    1
     4     4     5   ar
     5     5     6   ar
     6     6     7   ar
     7     7     8    1
     8     8     9    1
     9     9    10   ar
    10    10    11   ar
    11    11    12   ar
    12    12    13    1
    13    12    14   ar
    14    14    15   ar
    15     7    16   ar
    16     2    17    1
    17    17    18   ar
    18    18    19   ar
    19    19    20   ar
    20    20    21   ar
    21    21    22   ar
    22    16     4   ar
    23    22    17   ar
    24    15     9   ar
    25     3    23    1
    26     5    24    1
    27     6    25    1
    28     8    26    1
    29     8    27    1
    30    10    28    1
    31    11    29    1
    32    14    30    1
    33    15    31    1
    34    18    32    1
    35    19    33    1
    36    21    34    1
    37    22    35    1
