@<TRIPOS>MOLECULE
*****
 29 31 0 0 0
SMALL
GASTEIGER

@<TRIPOS>ATOM
      1 O           1.7775   -1.0220    2.3130 O.2     1  UNL1       -0.2698
      2 C           1.8162   -0.5301    1.1924 C.2     1  UNL1        0.2497
      3 N           0.7529   -0.1724    0.3982 N.am    1  UNL1       -0.2607
      4 C          -0.5791   -0.3495    0.6705 C.ar    1  UNL1        0.1652
      5 N          -1.4930    0.1023   -0.1545 N.ar    1  UNL1       -0.2241
      6 C          -2.7531   -0.2049    0.3299 C.ar    1  UNL1        0.0868
      7 C          -4.0503    0.2195   -0.4503 C.ar    1  UNL1        0.0381
      8 C          -5.3438   -0.0405   -0.0489 C.ar    1  UNL1       -0.0454
      9 C          -6.3051    0.4732   -0.9709 C.ar    1  UNL1       -0.0541
     10 C          -5.7088    1.1049   -2.0394 C.ar    1  UNL1       -0.0237
     11 S          -4.0020    1.0766   -1.9282 S.2     1  UNL1       -0.0951
     12 C          -2.7648   -0.8979    1.5228 C.ar    1  UNL1        0.0054
     13 S          -1.1549   -1.1703    2.0451 S.2     1  UNL1       -0.0599
     14 C           3.1571   -0.2361    0.6065 C.ar    1  UNL1        0.0372
     15 C           3.4032   -0.3308   -0.7709 C.ar    1  UNL1       -0.0482
     16 C           4.6780   -0.0503   -1.2735 C.ar    1  UNL1       -0.0427
     17 C           5.7052    0.3144   -0.4031 C.ar    1  UNL1        0.0410
     18 CL          7.2707    0.6578   -1.0272 Cl      1  UNL1       -0.0835
     19 C           5.4734    0.3946    0.9687 C.ar    1  UNL1       -0.0427
     20 C           4.2012    0.1142    1.4743 C.ar    1  UNL1       -0.0482
     21 H           0.9029    0.3431   -0.4567 H       1  UNL1        0.1571
     22 H          -5.6072   -0.5708    0.8572 H       1  UNL1        0.0629
     23 H          -7.3785    0.3836   -0.8551 H       1  UNL1        0.0623
     24 H          -6.1902    1.5828   -2.8816 H       1  UNL1        0.0693
     25 H          -3.6030   -1.2527    2.1026 H       1  UNL1        0.0716
     26 H           2.6285   -0.6491   -1.4637 H       1  UNL1        0.0625
     27 H           4.8667   -0.1281   -2.3416 H       1  UNL1        0.0632
     28 H           6.2753    0.6689    1.6496 H       1  UNL1        0.0632
     29 H           4.0251    0.1699    2.5475 H       1  UNL1        0.0625
@<TRIPOS>BOND
     1     1     2    2
     2     2     3   am
     3     3     4    1
     4     4     5   ar
     5     5     6   ar
     6     6     7    1
     7     7     8   ar
     8     8     9   ar
     9     9    10   ar
    10    10    11   ar
    11     6    12   ar
    12    12    13   ar
    13     2    14    1
    14    14    15   ar
    15    15    16   ar
    16    16    17   ar
    17    17    18    1
    18    17    19   ar
    19    19    20   ar
    20    13     4   ar
    21    20    14   ar
    22    11     7   ar
    23     3    21    1
    24     8    22    1
    25     9    23    1
    26    10    24    1
    27    12    25    1
    28    15    26    1
    29    16    27    1
    30    19    28    1
    31    20    29    1
