@<TRIPOS>MOLECULE
*****
 37 40 0 0 0
SMALL
GASTEIGER

@<TRIPOS>ATOM
      1 O          -1.5089   -0.7266   -1.5895 O.2     1  UNL1       -0.2712
      2 C          -1.1892    0.2750   -0.9557 C.2     1  UNL1        0.2628
      3 N           0.0854    0.5712   -0.5084 N.am    1  UNL1       -0.2615
      4 C           1.2018   -0.2194   -0.6032 C.ar    1  UNL1        0.1650
      5 N           2.3640    0.2225   -0.1838 N.ar    1  UNL1       -0.2246
      6 C           3.3368   -0.7556   -0.3577 C.ar    1  UNL1        0.0803
      7 C           4.7238   -0.5100    0.0296 C.ar    1  UNL1        0.0038
      8 C           5.6514   -1.5428    0.1895 C.ar    1  UNL1       -0.0344
      9 C           6.9474   -1.2197    0.5618 C.ar    1  UNL1        0.0282
     10 N           7.3750    0.0400    0.7828 N.ar    1  UNL1       -0.2632
     11 C           6.4647    1.0231    0.6301 C.ar    1  UNL1        0.0282
     12 C           5.1482    0.8016    0.2624 C.ar    1  UNL1       -0.0344
     13 C           2.8707   -1.9257   -0.9264 C.ar    1  UNL1        0.0049
     14 S           1.1872   -1.8005   -1.2251 S.2     1  UNL1       -0.0599
     15 C          -2.2101    1.3952   -0.6351 C.3     1  UNL1        0.2094
     16 C          -2.3732    1.6258    0.8658 C.3     1  UNL1        0.1352
     17 O          -2.9793    0.5053    1.5154 O.3     1  UNL1       -0.4841
     18 C          -4.0631    0.0498    0.8110 C.ar    1  UNL1        0.1621
     19 C          -4.9319   -0.8083    1.4826 C.ar    1  UNL1       -0.0163
     20 C          -6.0672   -1.2956    0.8332 C.ar    1  UNL1       -0.0581
     21 C          -6.3290   -0.9275   -0.4875 C.ar    1  UNL1       -0.0581
     22 C          -5.4509   -0.0792   -1.1640 C.ar    1  UNL1       -0.0163
     23 C          -4.3117    0.3991   -0.5193 C.ar    1  UNL1        0.1632
     24 O          -3.4837    1.2082   -1.2534 O.3     1  UNL1       -0.4725
     25 H           0.2910    1.4688   -0.0951 H       1  UNL1        0.1568
     26 H           5.3921   -2.5848    0.0452 H       1  UNL1        0.0639
     27 H           7.6986   -1.9927    0.6989 H       1  UNL1        0.0830
     28 H           6.8315    2.0284    0.8169 H       1  UNL1        0.0830
     29 H           4.4693    1.6417    0.1578 H       1  UNL1        0.0639
     30 H           3.4028   -2.8286   -1.1860 H       1  UNL1        0.0716
     31 H          -1.7985    2.3107   -1.0793 H       1  UNL1        0.0867
     32 H          -3.0015    2.5064    1.0543 H       1  UNL1        0.0739
     33 H          -1.4114    1.8043    1.3565 H       1  UNL1        0.0739
     34 H          -4.7290   -1.0920    2.5112 H       1  UNL1        0.0655
     35 H          -6.7468   -1.9634    1.3563 H       1  UNL1        0.0619
     36 H          -7.2116   -1.3094   -0.9942 H       1  UNL1        0.0619
     37 H          -5.6446    0.1937   -2.1975 H       1  UNL1        0.0655
@<TRIPOS>BOND
     1     1     2    2
     2     2     3   am
     3     3     4    1
     4     4     5   ar
     5     5     6   ar
     6     6     7    1
     7     7     8   ar
     8     8     9   ar
     9     9    10   ar
    10    10    11   ar
    11    11    12   ar
    12     6    13   ar
    13    13    14   ar
    14     2    15    1
    15    15    16    1
    16    16    17    1
    17    17    18    1
    18    18    19   ar
    19    19    20   ar
    20    20    21   ar
    21    21    22   ar
    22    22    23   ar
    23    23    24    1
    24    14     4   ar
    25    24    15    1
    26    12     7   ar
    27    23    18   ar
    28     3    25    1
    29     8    26    1
    30     9    27    1
    31    11    28    1
    32    12    29    1
    33    13    30    1
    34    15    31    1
    35    16    32    1
    36    16    33    1
    37    19    34    1
    38    20    35    1
    39    21    36    1
    40    22    37    1
