@<TRIPOS>MOLECULE
*****
 36 41 0 0 0
SMALL
GASTEIGER

@<TRIPOS>ATOM
      1 SI         -4.3212   -0.3864    1.5024 Si      1  UNL1        0.0000
      2 C          -6.1988   -0.2817    1.1449 C.2     1  UNL1        0.0000
      3 C          -6.4368   -0.0432   -0.1633 C.2     1  UNL1        0.0000
      4 C          -5.2651    0.0751   -0.9761 C.ar    1  UNL1        0.0000
      5 C          -5.1330    0.3163   -2.3149 C.ar    1  UNL1        0.0000
      6 S          -3.4683    0.3578   -2.7640 S.2     1  UNL1        0.0000
      7 C          -2.9075    0.0553   -1.1416 C.ar    1  UNL1        0.0000
      8 C          -1.5269   -0.0477   -0.8555 C.2     1  UNL1        0.0000
      9 C          -0.9559   -1.1291   -0.2856 C.2     1  UNL1        0.0000
     10 C           0.4891   -0.9714   -0.0614 C.ar    1  UNL1        0.0000
     11 C           1.3437   -1.8991    0.4959 C.ar    1  UNL1        0.0000
     12 N           2.6663   -1.7050    0.6871 N.ar    1  UNL1        0.0000
     13 C           3.1584   -0.4977    0.2875 C.ar    1  UNL1        0.0000
     14 C           4.4791   -0.0670    0.3787 C.ar    1  UNL1        0.0000
     15 SI          6.0819   -0.7905    1.0046 Si      1  UNL1        0.0000
     16 C           6.9310    0.8673    0.4919 C.2     1  UNL1        0.0000
     17 C           6.0520    1.7391   -0.0482 C.2     1  UNL1        0.0000
     18 C           4.7364    1.1988   -0.0928 C.ar    1  UNL1        0.0000
     19 S           3.3244    1.9200   -0.6796 S.2     1  UNL1        0.0000
     20 C           2.3713    0.5175   -0.2936 C.ar    1  UNL1        0.0000
     21 C           1.0115    0.2673   -0.4676 C.ar    1  UNL1        0.0000
     22 SI         -0.2928    1.3519   -1.1860 Si      1  UNL1        0.0000
     23 C          -4.0061   -0.0725   -0.3351 C.ar    1  UNL1        0.0000
     24 H          -3.9416   -1.7498    1.9524 H       1  UNL1        0.0000
     25 H          -3.8914    0.7223    2.3908 H       1  UNL1        0.0000
     26 H          -6.9210   -0.4059    1.9355 H       1  UNL1        0.0000
     27 H          -7.4343    0.0532   -0.5765 H       1  UNL1        0.0000
     28 H          -5.9018    0.4697   -3.0590 H       1  UNL1        0.0000
     29 H          -1.4722   -2.0404   -0.0137 H       1  UNL1        0.0000
     30 H           0.9789   -2.8695    0.8216 H       1  UNL1        0.0000
     31 H           6.6448   -1.8993    0.1934 H       1  UNL1        0.0000
     32 H           6.1785   -0.9538    2.4774 H       1  UNL1        0.0000
     33 H           7.9885    1.0051    0.6502 H       1  UNL1        0.0000
     34 H           6.3042    2.7291   -0.4068 H       1  UNL1        0.0000
     35 H          -0.0932    1.6146   -2.6348 H       1  UNL1        0.0000
     36 H          -0.5723    2.5496   -0.3514 H       1  UNL1        0.0000
@<TRIPOS>BOND
     1     1     2    1
     2     2     3    2
     3     3     4    1
     4     4     5   ar
     5     5     6   ar
     6     6     7   ar
     7     7     8    1
     8     8     9    2
     9     9    10    1
    10    10    11   ar
    11    11    12   ar
    12    12    13   ar
    13    13    14   ar
    14    14    15    1
    15    15    16    1
    16    16    17    2
    17    17    18    1
    18    18    19   ar
    19    19    20   ar
    20    20    21   ar
    21    21    22    1
    22     7    23   ar
    23    23     1    1
    24    23     4   ar
    25    22     8    1
    26    21    10   ar
    27    20    13   ar
    28    18    14   ar
    29     1    24    1
    30     1    25    1
    31     2    26    1
    32     3    27    1
    33     5    28    1
    34     9    29    1
    35    11    30    1
    36    15    31    1
    37    15    32    1
    38    16    33    1
    39    17    34    1
    40    22    35    1
    41    22    36    1
