@<TRIPOS>MOLECULE
*****
 39 42 0 0 0
SMALL
GASTEIGER

@<TRIPOS>ATOM
      1 O           2.9989    1.6839   -1.0943 O.2     1  UNL1       -0.2664
      2 C           2.6055    0.5925   -0.7003 C.2     1  UNL1        0.2857
      3 N           1.4314    0.3302   -0.0234 N.am    1  UNL1       -0.2493
      4 C           0.4836    1.2859    0.2482 C.ar    1  UNL1        0.2036
      5 N           0.5181    2.5552   -0.0833 N.ar    1  UNL1       -0.2141
      6 C          -0.6555    3.1029    0.3572 C.ar    1  UNL1        0.0909
      7 C          -1.1194    4.4215    0.2430 C.ar    1  UNL1       -0.0342
      8 C          -2.3705    4.7456    0.7792 C.ar    1  UNL1       -0.0596
      9 C          -3.1441    3.7751    1.4171 C.ar    1  UNL1       -0.0597
     10 C          -2.6962    2.4543    1.5421 C.ar    1  UNL1       -0.0360
     11 C          -1.4407    2.1508    0.9980 C.ar    1  UNL1        0.0704
     12 N          -0.6850    0.9988    0.9307 N.ar    1  UNL1       -0.3072
     13 C          -1.0310   -0.2701    1.5556 C.3     1  UNL1        0.0514
     14 C          -1.2978   -1.3692    0.5554 C.ar    1  UNL1       -0.0277
     15 C          -2.1759   -1.1799   -0.5228 C.ar    1  UNL1       -0.0569
     16 C          -2.4153   -2.2114   -1.4321 C.ar    1  UNL1       -0.0614
     17 C          -1.7920   -3.4462   -1.2686 C.ar    1  UNL1       -0.0617
     18 C          -0.9327   -3.6542   -0.1924 C.ar    1  UNL1       -0.0614
     19 C          -0.6908   -2.6248    0.7185 C.ar    1  UNL1       -0.0569
     20 C           3.3861   -0.6177   -0.9068 C.ar    1  UNL1        0.1894
     21 C           4.5987   -0.8218   -1.5380 C.ar    1  UNL1       -0.0113
     22 C           4.8824   -2.2048   -1.4423 C.ar    1  UNL1       -0.0231
     23 C           3.8299   -2.7650   -0.7584 C.ar    1  UNL1        0.0928
     24 O           2.9174   -1.8163   -0.4243 O.2     1  UNL1       -0.4583
     25 H           1.2558   -0.6377    0.2064 H       1  UNL1        0.1581
     26 H          -0.5095    5.1669   -0.2555 H       1  UNL1        0.0639
     27 H          -2.7399    5.7648    0.6953 H       1  UNL1        0.0618
     28 H          -4.1145    4.0506    1.8255 H       1  UNL1        0.0618
     29 H          -3.3092    1.7099    2.0380 H       1  UNL1        0.0639
     30 H          -0.1928   -0.5254    2.2155 H       1  UNL1        0.0542
     31 H          -1.9120   -0.1351    2.1905 H       1  UNL1        0.0542
     32 H          -2.6764   -0.2245   -0.6734 H       1  UNL1        0.0621
     33 H          -3.0885   -2.0494   -2.2706 H       1  UNL1        0.0618
     34 H          -1.9794   -4.2473   -1.9791 H       1  UNL1        0.0618
     35 H          -0.4526   -4.6210   -0.0623 H       1  UNL1        0.0618
     36 H          -0.0211   -2.8150    1.5552 H       1  UNL1        0.0621
     37 H           5.1940   -0.0509   -2.0096 H       1  UNL1        0.0657
     38 H           5.7469   -2.7282   -1.8264 H       1  UNL1        0.0649
     39 H           3.5940   -3.7730   -0.4464 H       1  UNL1        0.1029
@<TRIPOS>BOND
     1     1     2    2
     2     2     3   am
     3     3     4    1
     4     4     5   ar
     5     5     6   ar
     6     6     7   ar
     7     7     8   ar
     8     8     9   ar
     9     9    10   ar
    10    10    11   ar
    11    11    12   ar
    12    12    13    1
    13    13    14    1
    14    14    15   ar
    15    15    16   ar
    16    16    17   ar
    17    17    18   ar
    18    18    19   ar
    19     2    20    1
    20    20    21   ar
    21    21    22   ar
    22    22    23   ar
    23    23    24   ar
    24    12     4   ar
    25    19    14   ar
    26    24    20   ar
    27    11     6   ar
    28     3    25    1
    29     7    26    1
    30     8    27    1
    31     9    28    1
    32    10    29    1
    33    13    30    1
    34    13    31    1
    35    15    32    1
    36    16    33    1
    37    17    34    1
    38    18    35    1
    39    19    36    1
    40    21    37    1
    41    22    38    1
    42    23    39    1
