@<TRIPOS>MOLECULE
*****
 45 49 0 0 0
SMALL
GASTEIGER

@<TRIPOS>ATOM
      1 O           0.7900    1.3186    0.7547 O.2     1  UNL1       -0.2748
      2 C           0.3289    0.4276    0.0491 C.2     1  UNL1        0.2245
      3 N           1.0693   -0.5162   -0.6198 N.am    1  UNL1       -0.2696
      4 C           2.4459   -0.7485   -0.6293 C.ar    1  UNL1        0.1315
      5 N           2.7967   -1.5768   -1.6378 N.ar    1  UNL1       -0.2203
      6 C           4.1062   -1.8607   -1.7798 C.ar    1  UNL1        0.1183
      7 N           5.1031   -1.4138   -1.0093 N.ar    1  UNL1       -0.2399
      8 C           4.6963   -0.6292   -0.0064 C.ar    1  UNL1        0.0495
      9 C           3.3819   -0.2670    0.2481 C.ar    1  UNL1        0.0140
     10 C           3.3167    0.5885    1.4671 C.3     1  UNL1       -0.0224
     11 C           4.6777    0.3138    2.1250 C.3     1  UNL1       -0.0435
     12 C           5.6412   -0.0116    0.9851 C.3     1  UNL1       -0.0097
     13 C          -1.1933    0.3114   -0.1895 C.3     1  UNL1        0.0481
     14 C          -1.9445    1.3683    0.6650 C.3     1  UNL1       -0.0362
     15 C          -3.4630    1.2751    0.4455 C.3     1  UNL1       -0.0396
     16 C          -3.7726    1.5179   -1.0399 C.3     1  UNL1       -0.0473
     17 C          -3.0591    0.4659   -1.9035 C.3     1  UNL1       -0.0396
     18 C          -3.5406   -0.9367   -1.4944 C.3     1  UNL1       -0.0473
     19 C          -3.2328   -1.1897   -0.0086 C.3     1  UNL1       -0.0396
     20 C          -3.9449   -0.1283    0.8444 C.3     1  UNL1       -0.0473
     21 C          -1.7138   -1.0898    0.2172 C.3     1  UNL1       -0.0362
     22 C          -1.5398    0.5652   -1.6774 C.3     1  UNL1       -0.0362
     23 H           0.6130   -1.0720   -1.3295 H       1  UNL1        0.1562
     24 H           4.3770   -2.5148   -2.6015 H       1  UNL1        0.1047
     25 H           2.5147    0.2974    2.1505 H       1  UNL1        0.0315
     26 H           3.2358    1.6451    1.1929 H       1  UNL1        0.0315
     27 H           4.5896   -0.5600    2.7859 H       1  UNL1        0.0272
     28 H           5.0215    1.1506    2.7409 H       1  UNL1        0.0272
     29 H           6.4281   -0.7032    1.2972 H       1  UNL1        0.0328
     30 H           6.0832    0.8960    0.5620 H       1  UNL1        0.0328
     31 H          -1.7172    1.2256    1.7298 H       1  UNL1        0.0278
     32 H          -1.5997    2.3791    0.4090 H       1  UNL1        0.0278
     33 H          -3.9721    2.0283    1.0571 H       1  UNL1        0.0301
     34 H          -4.8553    1.4705   -1.2096 H       1  UNL1        0.0271
     35 H          -3.4484    2.5245   -1.3312 H       1  UNL1        0.0271
     36 H          -3.2866    0.6409   -2.9610 H       1  UNL1        0.0301
     37 H          -3.0492   -1.6971   -2.1138 H       1  UNL1        0.0271
     38 H          -4.6189   -1.0286   -1.6736 H       1  UNL1        0.0271
     39 H          -3.5830   -2.1880    0.2765 H       1  UNL1        0.0301
     40 H          -3.7444   -0.3058    1.9081 H       1  UNL1        0.0271
     41 H          -5.0306   -0.2045    0.7080 H       1  UNL1        0.0271
     42 H          -1.4771   -1.2879    1.2708 H       1  UNL1        0.0278
     43 H          -1.2159   -1.8781   -0.3608 H       1  UNL1        0.0278
     44 H          -1.0352   -0.1576   -2.3298 H       1  UNL1        0.0278
     45 H          -1.1790    1.5558   -1.9838 H       1  UNL1        0.0278
@<TRIPOS>BOND
     1     1     2    2
     2     2     3   am
     3     3     4    1
     4     4     5   ar
     5     5     6   ar
     6     6     7   ar
     7     7     8   ar
     8     8     9   ar
     9     9    10    1
    10    10    11    1
    11    11    12    1
    12     2    13    1
    13    13    14    1
    14    14    15    1
    15    15    16    1
    16    16    17    1
    17    17    18    1
    18    18    19    1
    19    19    20    1
    20    19    21    1
    21    17    22    1
    22     9     4   ar
    23    21    13    1
    24    12     8    1
    25    22    13    1
    26    20    15    1
    27     3    23    1
    28     6    24    1
    29    10    25    1
    30    10    26    1
    31    11    27    1
    32    11    28    1
    33    12    29    1
    34    12    30    1
    35    14    31    1
    36    14    32    1
    37    15    33    1
    38    16    34    1
    39    16    35    1
    40    17    36    1
    41    18    37    1
    42    18    38    1
    43    19    39    1
    44    20    40    1
    45    20    41    1
    46    21    42    1
    47    21    43    1
    48    22    44    1
    49    22    45    1
