@<TRIPOS>MOLECULE
*****
 21 22 0 0 0
SMALL
GASTEIGER

@<TRIPOS>ATOM
      1 O           0.7491    1.6078    0.9681 O.2     1  UNL1       -0.2698
      2 C           0.4317    0.5784    0.3862 C.2     1  UNL1        0.2508
      3 N           1.2633   -0.3598   -0.1741 N.am    1  UNL1       -0.2592
      4 C           2.6353   -0.3660   -0.1464 C.ar    1  UNL1        0.1877
      5 N           3.3403   -1.3166   -0.7218 N.ar    1  UNL1       -0.1259
      6 N           4.7002   -1.1253   -0.5686 N.ar    1  UNL1       -0.1481
      7 C           4.9577   -0.0352    0.1211 C.ar    1  UNL1        0.0902
      8 S           3.5703    0.8311    0.6268 S.2     1  UNL1       -0.0387
      9 C          -1.0171    0.3232    0.1782 C.ar    1  UNL1        0.0510
     10 C          -1.7674    1.3874   -0.3480 C.ar    1  UNL1       -0.0486
     11 C          -3.1326    1.2369   -0.5932 C.ar    1  UNL1       -0.0610
     12 C          -3.7597    0.0270   -0.3061 C.ar    1  UNL1       -0.0607
     13 C          -3.0259   -1.0296    0.2366 C.ar    1  UNL1       -0.0470
     14 C          -1.6556   -0.8854    0.4864 C.ar    1  UNL1        0.0300
     15 BR         -0.7698   -2.3583    1.2937 Br      1  UNL1       -0.0495
     16 H           0.8710   -1.1568   -0.6574 H       1  UNL1        0.1571
     17 H           5.9638    0.2868    0.3493 H       1  UNL1        0.0927
     18 H          -1.2853    2.3391   -0.5673 H       1  UNL1        0.0625
     19 H          -3.7060    2.0656   -1.0028 H       1  UNL1        0.0618
     20 H          -4.8251   -0.0904   -0.4924 H       1  UNL1        0.0618
     21 H          -3.5383   -1.9600    0.4732 H       1  UNL1        0.0629
@<TRIPOS>BOND
     1     1     2    2
     2     2     3   am
     3     3     4    1
     4     4     5   ar
     5     5     6   ar
     6     6     7   ar
     7     7     8   ar
     8     2     9    1
     9     9    10   ar
    10    10    11   ar
    11    11    12   ar
    12    12    13   ar
    13    13    14   ar
    14    14    15    1
    15     8     4   ar
    16    14     9   ar
    17     3    16    1
    18     7    17    1
    19    10    18    1
    20    11    19    1
    21    12    20    1
    22    13    21    1
