@<TRIPOS>MOLECULE
*****
 23 23 0 0 0
SMALL
GASTEIGER

@<TRIPOS>ATOM
      1 O           0.6337   -0.4044   -1.5870 O.2     1  UNL1       -0.2525
      2 C           0.7256    0.0075   -0.4385 C.2     1  UNL1        0.3052
      3 N           1.9414    0.3439    0.1190 N.am    1  UNL1       -0.2905
      4 C           3.1682    0.1173   -0.6509 C.3     1  UNL1        0.1083
      5 C           4.4277    0.7045   -0.0241 C.3     1  UNL1        0.4050
      6 F           5.5275    0.3738   -0.7350 F       1  UNL1       -0.1690
      7 F           4.3702    2.0520    0.0472 F       1  UNL1       -0.1690
      8 F           4.5963    0.2344    1.2350 F       1  UNL1       -0.1690
      9 N          -0.2955    0.2066    0.4474 N.am    1  UNL1       -0.2542
     10 C          -1.6549   -0.0523    0.2746 C.ar    1  UNL1        0.1260
     11 C          -2.1926   -0.6961   -0.8311 C.ar    1  UNL1       -0.0215
     12 C          -3.5705   -0.9034   -0.8835 C.ar    1  UNL1       -0.0571
     13 C          -4.3673   -0.4666    0.1657 C.ar    1  UNL1       -0.0435
     14 C          -3.7477    0.1612    1.2307 C.ar    1  UNL1        0.0297
     15 N          -2.4149    0.3740    1.3080 N.ar    1  UNL1       -0.2401
     16 H           2.0060    0.1950    1.1181 H       1  UNL1        0.1506
     17 H           3.0283    0.5341   -1.6545 H       1  UNL1        0.0551
     18 H           3.2837   -0.9672   -0.7576 H       1  UNL1        0.0551
     19 H          -0.1095    0.7228    1.2925 H       1  UNL1        0.1578
     20 H          -1.5777   -1.0438   -1.6524 H       1  UNL1        0.0652
     21 H          -4.0130   -1.4031   -1.7408 H       1  UNL1        0.0619
     22 H          -5.4415   -0.6121    0.1536 H       1  UNL1        0.0633
     23 H          -4.3235    0.5219    2.0783 H       1  UNL1        0.0830
@<TRIPOS>BOND
     1     1     2    2
     2     2     3   am
     3     3     4    1
     4     4     5    1
     5     5     6    1
     6     5     7    1
     7     5     8    1
     8     2     9   am
     9     9    10    1
    10    10    11   ar
    11    11    12   ar
    12    12    13   ar
    13    13    14   ar
    14    14    15   ar
    15    15    10   ar
    16     3    16    1
    17     4    17    1
    18     4    18    1
    19     9    19    1
    20    11    20    1
    21    12    21    1
    22    13    22    1
    23    14    23    1
