@<TRIPOS>MOLECULE
*****
 28 29 0 0 0
SMALL
GASTEIGER

@<TRIPOS>ATOM
      1 O          -1.2091    0.7159   -2.5906 O.2     1  UNL1       -0.2685
      2 C          -1.1606    0.3992   -1.4122 C.2     1  UNL1        0.2644
      3 N          -0.0165    0.2859   -0.6621 N.am    1  UNL1       -0.3059
      4 C           1.2680    0.6718   -1.1834 C.3     1  UNL1        0.0372
      5 C           2.3682    0.2932   -0.2310 C.ar    1  UNL1       -0.0303
      6 C           2.8533    1.2185    0.7039 C.ar    1  UNL1       -0.0571
      7 C           3.8562    0.8548    1.6041 C.ar    1  UNL1       -0.0615
      8 C           4.3776   -0.4375    1.5839 C.ar    1  UNL1       -0.0617
      9 C           3.8952   -1.3689    0.6663 C.ar    1  UNL1       -0.0615
     10 C           2.8925   -1.0073   -0.2347 C.ar    1  UNL1       -0.0571
     11 C          -2.4432    0.0965   -0.6319 C.ar    1  UNL1        0.1456
     12 C          -3.6898   -0.0213   -1.4184 C.ar    1  UNL1       -0.0243
     13 C          -4.8089   -0.2869   -0.7405 C.ar    1  UNL1        0.0064
     14 C          -4.7698   -0.4502    0.7264 C.ar    1  UNL1        0.2647
     15 O          -5.7908   -0.6948    1.3576 O.2     1  UNL1       -0.2664
     16 N          -3.5363   -0.3111    1.3135 N.ar    1  UNL1       -0.2425
     17 N          -2.3629   -0.0393    0.6607 N.ar    1  UNL1       -0.1663
     18 H          -0.1332    0.1383    0.3367 H       1  UNL1        0.1494
     19 H           1.2562    1.7544   -1.3572 H       1  UNL1        0.0512
     20 H           1.4185    0.1972   -2.1604 H       1  UNL1        0.0512
     21 H           2.4524    2.2294    0.7365 H       1  UNL1        0.0621
     22 H           4.2299    1.5795    2.3230 H       1  UNL1        0.0618
     23 H           5.1583   -0.7199    2.2855 H       1  UNL1        0.0618
     24 H           4.2982   -2.3783    0.6539 H       1  UNL1        0.0618
     25 H           2.5189   -1.7462   -0.9407 H       1  UNL1        0.0621
     26 H          -3.6622    0.1091   -2.4920 H       1  UNL1        0.0643
     27 H          -5.7737   -0.3920   -1.2187 H       1  UNL1        0.0673
     28 H          -3.4866   -0.4196    2.3218 H       1  UNL1        0.1921
@<TRIPOS>BOND
     1     1     2    2
     2     2     3   am
     3     3     4    1
     4     4     5    1
     5     5     6   ar
     6     6     7   ar
     7     7     8   ar
     8     8     9   ar
     9     9    10   ar
    10     2    11    1
    11    11    12   ar
    12    12    13   ar
    13    13    14   ar
    14    14    15    2
    15    14    16   ar
    16    16    17   ar
    17    10     5   ar
    18    17    11   ar
    19     3    18    1
    20     4    19    1
    21     4    20    1
    22     6    21    1
    23     7    22    1
    24     8    23    1
    25     9    24    1
    26    10    25    1
    27    12    26    1
    28    13    27    1
    29    16    28    1
