@<TRIPOS>MOLECULE
*****
 33 35 0 0 0
SMALL
GASTEIGER

@<TRIPOS>ATOM
      1 O          -0.0737   -1.4533    1.3953 O.2     1  UNL1       -0.2525
      2 C           0.1320   -0.5608    0.5836 C.2     1  UNL1        0.3042
      3 N           1.4028   -0.1714    0.2330 N.am    1  UNL1       -0.2935
      4 C           2.5477   -0.9010    0.7371 C.3     1  UNL1        0.0554
      5 C           3.8337   -0.4142    0.1054 C.ar    1  UNL1        0.0583
      6 C           5.0557   -0.7023    0.7087 C.ar    1  UNL1       -0.0388
      7 C           6.2267   -0.2716    0.0915 C.ar    1  UNL1       -0.0586
      8 C           6.1496    0.4243   -1.1088 C.ar    1  UNL1       -0.0436
      9 C           4.8975    0.6615   -1.6497 C.ar    1  UNL1        0.0279
     10 N           3.7416    0.2576   -1.0777 N.ar    1  UNL1       -0.2583
     11 N          -0.8093    0.1986   -0.0728 N.am    1  UNL1       -0.2694
     12 C          -2.2116    0.0747   -0.0229 C.ar    1  UNL1        0.0385
     13 C          -2.8782   -0.9709    0.6451 C.ar    1  UNL1       -0.0367
     14 C          -4.2777   -1.0461    0.6543 C.ar    1  UNL1       -0.0144
     15 C          -4.9785   -0.0678   -0.0126 C.ar    1  UNL1        0.1663
     16 C          -4.3368    0.9526   -0.6701 C.ar    1  UNL1        0.1680
     17 C          -2.9606    1.0515   -0.6957 C.ar    1  UNL1        0.0051
     18 O          -5.2056    1.8130   -1.2665 O.3     1  UNL1       -0.4525
     19 C          -6.4687    1.2158   -0.9044 C.3     1  UNL1        0.2332
     20 O          -6.3312    0.0194   -0.1106 O.3     1  UNL1       -0.4526
     21 H           1.5439    0.1993   -0.6981 H       1  UNL1        0.1506
     22 H           2.5753   -0.7703    1.8246 H       1  UNL1        0.0527
     23 H           2.4147   -1.9652    0.5122 H       1  UNL1        0.0527
     24 H           5.1000   -1.2519    1.6438 H       1  UNL1        0.0636
     25 H           7.1925   -0.4798    0.5435 H       1  UNL1        0.0619
     26 H           7.0447    0.7715   -1.6127 H       1  UNL1        0.0633
     27 H           4.7882    1.1981   -2.5879 H       1  UNL1        0.0829
     28 H          -0.4398    1.0000   -0.5625 H       1  UNL1        0.1564
     29 H          -2.3277   -1.7483    1.1671 H       1  UNL1        0.0637
     30 H          -4.7895   -1.8507    1.1700 H       1  UNL1        0.0656
     31 H          -2.4913    1.8718   -1.2263 H       1  UNL1        0.0674
     32 H          -7.0527    1.9489   -0.3360 H       1  UNL1        0.1166
     33 H          -7.0142    0.9670   -1.8220 H       1  UNL1        0.1166
@<TRIPOS>BOND
     1     1     2    2
     2     2     3   am
     3     3     4    1
     4     4     5    1
     5     5     6   ar
     6     6     7   ar
     7     7     8   ar
     8     8     9   ar
     9     9    10   ar
    10     2    11   am
    11    11    12    1
    12    12    13   ar
    13    13    14   ar
    14    14    15   ar
    15    15    16   ar
    16    16    17   ar
    17    16    18    1
    18    18    19    1
    19    19    20    1
    20    10     5   ar
    21    17    12   ar
    22    20    15    1
    23     3    21    1
    24     4    22    1
    25     4    23    1
    26     6    24    1
    27     7    25    1
    28     8    26    1
    29     9    27    1
    30    11    28    1
    31    13    29    1
    32    14    30    1
    33    17    31    1
    34    19    32    1
    35    19    33    1
