@<TRIPOS>MOLECULE
*****
 37 39 0 0 0
SMALL
GASTEIGER

@<TRIPOS>ATOM
      1 O           0.2295   -0.0316    1.3211 O.2     1  UNL1       -0.2528
      2 C           0.3377   -0.2803    0.1276 C.2     1  UNL1        0.3006
      3 N           1.3161   -1.0929   -0.3969 N.am    1  UNL1       -0.2952
      4 C           2.3501   -1.6370    0.4554 C.3     1  UNL1        0.0397
      5 C           3.5756   -0.7705    0.4551 C.ar    1  UNL1       -0.0122
      6 C           4.6536   -1.0232   -0.3988 C.ar    1  UNL1       -0.0542
      7 C           5.7642   -0.1843   -0.3753 C.ar    1  UNL1       -0.0433
      8 C           5.7582    0.8880    0.5006 C.ar    1  UNL1        0.0276
      9 N           4.7342    1.1702    1.3325 N.ar    1  UNL1       -0.2629
     10 C           3.6660    0.3401    1.2894 C.ar    1  UNL1        0.0322
     11 N          -0.4804    0.2119   -0.8652 N.am    1  UNL1       -0.2899
     12 C          -1.6443    1.0111   -0.5685 C.3     1  UNL1        0.0613
     13 C          -2.9008    0.1853   -0.3234 C.ar    1  UNL1       -0.0241
     14 C          -3.2092   -0.3016    0.9591 C.ar    1  UNL1       -0.0565
     15 C          -4.3497   -1.0736    1.1937 C.ar    1  UNL1       -0.0614
     16 C          -5.2089   -1.3812    0.1431 C.ar    1  UNL1       -0.0617
     17 C          -4.9249   -0.9207   -1.1394 C.ar    1  UNL1       -0.0614
     18 C          -3.7816   -0.1498   -1.3678 C.ar    1  UNL1       -0.0565
     19 C          -1.4881    2.3347    0.1568 C.3     1  UNL1       -0.0251
     20 C          -1.7891    2.3340   -1.3063 C.3     1  UNL1       -0.0251
     21 H           1.5824   -0.8831   -1.3470 H       1  UNL1        0.1506
     22 H           2.5940   -2.6314    0.0648 H       1  UNL1        0.0512
     23 H           1.9786   -1.7773    1.4770 H       1  UNL1        0.0512
     24 H           4.6369   -1.8711   -1.0785 H       1  UNL1        0.0622
     25 H           6.6150   -0.3621   -1.0233 H       1  UNL1        0.0633
     26 H           6.6013    1.5703    0.5576 H       1  UNL1        0.0829
     27 H           2.8547    0.6042    1.9653 H       1  UNL1        0.0833
     28 H          -0.5724   -0.3991   -1.6643 H       1  UNL1        0.1511
     29 H          -2.5379   -0.0773    1.7876 H       1  UNL1        0.0621
     30 H          -4.5606   -1.4345    2.1969 H       1  UNL1        0.0618
     31 H          -6.0967   -1.9810    0.3240 H       1  UNL1        0.0618
     32 H          -5.5920   -1.1603   -1.9631 H       1  UNL1        0.0618
     33 H          -3.5748    0.1995   -2.3769 H       1  UNL1        0.0621
     34 H          -0.4939    2.6253    0.4774 H       1  UNL1        0.0290
     35 H          -2.2706    2.6460    0.8392 H       1  UNL1        0.0290
     36 H          -2.7753    2.6660   -1.6095 H       1  UNL1        0.0290
     37 H          -0.9967    2.6372   -1.9805 H       1  UNL1        0.0290
@<TRIPOS>BOND
     1     1     2    2
     2     2     3   am
     3     3     4    1
     4     4     5    1
     5     5     6   ar
     6     6     7   ar
     7     7     8   ar
     8     8     9   ar
     9     9    10   ar
    10     2    11   am
    11    11    12    1
    12    12    13    1
    13    13    14   ar
    14    14    15   ar
    15    15    16   ar
    16    16    17   ar
    17    17    18   ar
    18    12    19    1
    19    19    20    1
    20    10     5   ar
    21    20    12    1
    22    18    13   ar
    23     3    21    1
    24     4    22    1
    25     4    23    1
    26     6    24    1
    27     7    25    1
    28     8    26    1
    29    10    27    1
    30    11    28    1
    31    14    29    1
    32    15    30    1
    33    16    31    1
    34    17    32    1
    35    18    33    1
    36    19    34    1
    37    19    35    1
    38    20    36    1
    39    20    37    1
