@<TRIPOS>MOLECULE
*****
 41 44 0 0 0
SMALL
GASTEIGER

@<TRIPOS>ATOM
      1 O           1.9495    1.8652    2.5645 O.2     1  UNL1       -0.2668
      2 C           1.7182    0.8030    1.9911 C.2     1  UNL1        0.2794
      3 N           0.5347    0.1173    2.2048 N.am    1  UNL1       -0.3085
      4 C          -0.5437    0.6966    2.9852 C.3     1  UNL1        0.0160
      5 C          -1.3514    1.7390    2.2028 C.3     1  UNL1       -0.0119
      6 C          -2.0149    1.1557    0.9757 C.ar    1  UNL1       -0.0422
      7 C          -1.4516    1.3497   -0.2947 C.ar    1  UNL1       -0.0548
      8 C          -2.0419    0.7824   -1.4260 C.ar    1  UNL1       -0.0160
      9 C          -3.1968    0.0154   -1.2965 C.ar    1  UNL1        0.1621
     10 C          -3.7810   -0.1608   -0.0388 C.ar    1  UNL1        0.1623
     11 C          -3.1855    0.3928    1.0942 C.ar    1  UNL1       -0.0131
     12 O          -4.9350   -0.8757    0.1596 O.3     1  UNL1       -0.4849
     13 C          -5.6350   -1.0804   -1.0732 C.3     1  UNL1        0.1237
     14 C          -4.6787   -1.5420   -2.1604 C.3     1  UNL1        0.1237
     15 O          -3.7077   -0.5291   -2.4468 O.3     1  UNL1       -0.4849
     16 C           2.6208    0.1858    1.0366 C.ar    1  UNL1        0.1905
     17 C           2.5907   -1.0105    0.3368 C.ar    1  UNL1       -0.0035
     18 C           3.7645   -1.0598   -0.4611 C.ar    1  UNL1        0.0209
     19 C           4.3230   -1.9706   -1.3751 C.ar    1  UNL1       -0.0510
     20 C           5.5466   -1.6492   -1.9811 C.ar    1  UNL1       -0.0610
     21 C           6.2037   -0.4510   -1.6875 C.ar    1  UNL1       -0.0582
     22 C           5.6631    0.4663   -0.7805 C.ar    1  UNL1       -0.0187
     23 C           4.4478    0.1184   -0.1964 C.ar    1  UNL1        0.1359
     24 O           3.7628    0.8695    0.7048 O.2     1  UNL1       -0.4502
     25 H           0.2915   -0.6362    1.5782 H       1  UNL1        0.1491
     26 H          -1.1829   -0.1324    3.3079 H       1  UNL1        0.0465
     27 H          -0.1184    1.1616    3.8816 H       1  UNL1        0.0465
     28 H          -0.7070    2.5769    1.9093 H       1  UNL1        0.0328
     29 H          -2.1242    2.1658    2.8543 H       1  UNL1        0.0328
     30 H          -0.5455    1.9422   -0.4102 H       1  UNL1        0.0621
     31 H          -1.5964    0.9330   -2.4056 H       1  UNL1        0.0655
     32 H          -3.6470    0.2361    2.0660 H       1  UNL1        0.0658
     33 H          -6.1375   -0.1451   -1.3496 H       1  UNL1        0.0731
     34 H          -6.4023   -1.8405   -0.8963 H       1  UNL1        0.0731
     35 H          -5.2273   -1.7462   -3.0852 H       1  UNL1        0.0731
     36 H          -4.1500   -2.4575   -1.8672 H       1  UNL1        0.0731
     37 H           1.8221   -1.7672    0.3902 H       1  UNL1        0.0663
     38 H           3.8224   -2.9048   -1.6108 H       1  UNL1        0.0625
     39 H           5.9909   -2.3446   -2.6905 H       1  UNL1        0.0618
     40 H           7.1521   -0.2260   -2.1710 H       1  UNL1        0.0619
     41 H           6.1572    1.3995   -0.5392 H       1  UNL1        0.0654
@<TRIPOS>BOND
     1     1     2    2
     2     2     3   am
     3     3     4    1
     4     4     5    1
     5     5     6    1
     6     6     7   ar
     7     7     8   ar
     8     8     9   ar
     9     9    10   ar
    10    10    11   ar
    11    10    12    1
    12    12    13    1
    13    13    14    1
    14    14    15    1
    15     2    16    1
    16    16    17   ar
    17    17    18   ar
    18    18    19   ar
    19    19    20   ar
    20    20    21   ar
    21    21    22   ar
    22    22    23   ar
    23    23    24   ar
    24    11     6   ar
    25    24    16   ar
    26    15     9    1
    27    23    18   ar
    28     3    25    1
    29     4    26    1
    30     4    27    1
    31     5    28    1
    32     5    29    1
    33     7    30    1
    34     8    31    1
    35    11    32    1
    36    13    33    1
    37    13    34    1
    38    14    35    1
    39    14    36    1
    40    17    37    1
    41    19    38    1
    42    20    39    1
    43    21    40    1
    44    22    41    1
