@<TRIPOS>MOLECULE
*****
 42 45 0 0 0
SMALL
GASTEIGER

@<TRIPOS>ATOM
      1 O          -0.1795    2.3881    1.1326 O.2     1  UNL1       -0.2737
      2 C          -0.4592    1.2400    0.8028 C.2     1  UNL1        0.2344
      3 N           0.4436    0.3960    0.1853 N.am    1  UNL1       -0.3134
      4 C           1.7955    0.8034   -0.1446 C.3     1  UNL1        0.0157
      5 C           2.7205    0.7842    1.0753 C.3     1  UNL1       -0.0093
      6 C           4.1665    0.9732    0.6959 C.ar    1  UNL1       -0.0107
      7 C           5.0673   -0.0998    0.7394 C.ar    1  UNL1       -0.0558
      8 C           6.4048    0.0848    0.3778 C.ar    1  UNL1       -0.0613
      9 C           6.8557    1.3399   -0.0316 C.ar    1  UNL1       -0.0590
     10 C           5.9680    2.4127   -0.0799 C.ar    1  UNL1       -0.0262
     11 C           4.6375    2.2227    0.2817 C.ar    1  UNL1        0.1266
     12 F           3.7984    3.2660    0.2226 F       1  UNL1       -0.2052
     13 C          -1.7800    0.5518    1.1863 C.3     1  UNL1        0.1128
     14 C          -2.9426    1.5305    1.3264 C.3     1  UNL1        0.0230
     15 S          -3.7782    1.5617   -0.3006 S.3     1  UNL1       -0.1312
     16 C          -2.9373    0.0939   -0.9243 C.3     1  UNL1        0.0995
     17 C          -3.8198   -1.0484   -1.2973 C.ar    1  UNL1       -0.0049
     18 C          -4.7617   -1.1608   -2.3062 C.ar    1  UNL1       -0.0553
     19 C          -5.4389   -2.3781   -2.4456 C.ar    1  UNL1       -0.0614
     20 C          -5.1710   -3.4601   -1.5858 C.ar    1  UNL1       -0.0610
     21 C          -4.2204   -3.3430   -0.5709 C.ar    1  UNL1       -0.0493
     22 C          -3.5611   -2.1341   -0.4592 C.ar    1  UNL1        0.0427
     23 C          -2.5558   -1.7168    0.5249 C.2     1  UNL1        0.2487
     24 O          -2.1887   -2.3718    1.4801 O.2     1  UNL1       -0.2699
     25 N          -2.1691   -0.4327    0.1842 N.am    1  UNL1       -0.2691
     26 H           0.1808   -0.5800    0.0899 H       1  UNL1        0.1487
     27 H           2.1527    0.1100   -0.9142 H       1  UNL1        0.0465
     28 H           1.7589    1.8055   -0.5870 H       1  UNL1        0.0465
     29 H           2.4296    1.5632    1.7913 H       1  UNL1        0.0329
     30 H           2.6015   -0.1663    1.6118 H       1  UNL1        0.0329
     31 H           4.7362   -1.0861    1.0574 H       1  UNL1        0.0621
     32 H           7.0972   -0.7531    0.4175 H       1  UNL1        0.0618
     33 H           7.8965    1.4813   -0.3109 H       1  UNL1        0.0618
     34 H           6.3017    3.3959   -0.3957 H       1  UNL1        0.0646
     35 H          -1.5931    0.0559    2.1469 H       1  UNL1        0.0605
     36 H          -3.6704    1.1521    2.0518 H       1  UNL1        0.0400
     37 H          -2.6485    2.5388    1.6284 H       1  UNL1        0.0400
     38 H          -2.2466    0.3546   -1.7327 H       1  UNL1        0.0668
     39 H          -4.9782   -0.3297   -2.9713 H       1  UNL1        0.0621
     40 H          -6.1878   -2.4903   -3.2277 H       1  UNL1        0.0618
     41 H          -5.7157   -4.3936   -1.7112 H       1  UNL1        0.0618
     42 H          -4.0091   -4.1617    0.1088 H       1  UNL1        0.0625
@<TRIPOS>BOND
     1     1     2    2
     2     2     3   am
     3     3     4    1
     4     4     5    1
     5     5     6    1
     6     6     7   ar
     7     7     8   ar
     8     8     9   ar
     9     9    10   ar
    10    10    11   ar
    11    11    12    1
    12     2    13    1
    13    13    14    1
    14    14    15    1
    15    15    16    1
    16    16    17    1
    17    17    18   ar
    18    18    19   ar
    19    19    20   ar
    20    20    21   ar
    21    21    22   ar
    22    22    23    1
    23    23    24    2
    24    23    25   am
    25    11     6   ar
    26    25    13    1
    27    25    16    1
    28    22    17   ar
    29     3    26    1
    30     4    27    1
    31     4    28    1
    32     5    29    1
    33     5    30    1
    34     7    31    1
    35     8    32    1
    36     9    33    1
    37    10    34    1
    38    13    35    1
    39    14    36    1
    40    14    37    1
    41    16    38    1
    42    18    39    1
    43    19    40    1
    44    20    41    1
    45    21    42    1
