@<TRIPOS>MOLECULE
*****
 26 27 0 0 0
SMALL
GASTEIGER

@<TRIPOS>ATOM
      1 O          -1.0928   -0.9266    0.8887 O.2     1  UNL1       -0.2695
      2 C          -0.9159    0.1169    0.2644 C.2     1  UNL1        0.2545
      3 N          -1.9816    0.9537   -0.0152 N.am    1  UNL1       -0.3086
      4 C          -3.3332    0.6523    0.4055 C.3     1  UNL1        0.0351
      5 C          -3.9954   -0.4409   -0.4348 C.3     1  UNL1        0.0597
      6 O          -5.3920   -0.5102   -0.1606 O.3     1  UNL1       -0.3935
      7 C           0.3812    0.5596   -0.2332 C.ar    1  UNL1        0.1192
      8 S           0.5514    2.0199   -1.1430 S.2     1  UNL1       -0.0847
      9 C           2.2415    1.8141   -1.3237 C.ar    1  UNL1        0.0219
     10 C           2.6684    0.6744   -0.6955 C.ar    1  UNL1        0.1698
     11 C           1.6086   -0.0573   -0.0979 C.ar    1  UNL1        0.1812
     12 O           1.7867   -1.2312    0.5572 O.3     1  UNL1       -0.4836
     13 C           3.0728   -1.7951    0.2514 C.3     1  UNL1        0.1237
     14 C           4.1799   -0.7364    0.2976 C.3     1  UNL1        0.1237
     15 O           3.9698    0.2999   -0.6791 O.3     1  UNL1       -0.4844
     16 H          -1.7999    1.7955   -0.5464 H       1  UNL1        0.1491
     17 H          -3.9090    1.5819    0.3386 H       1  UNL1        0.0485
     18 H          -3.3262    0.3574    1.4612 H       1  UNL1        0.0485
     19 H          -3.5560   -1.4197   -0.2193 H       1  UNL1        0.0573
     20 H          -3.8666   -0.2480   -1.5054 H       1  UNL1        0.0573
     21 H          -5.7991    0.3079   -0.4920 H       1  UNL1        0.2095
     22 H           2.8353    2.5382   -1.8637 H       1  UNL1        0.0732
     23 H           3.0169   -2.2613   -0.7403 H       1  UNL1        0.0731
     24 H           3.2731   -2.5809    0.9865 H       1  UNL1        0.0731
     25 H           5.1502   -1.1971    0.0868 H       1  UNL1        0.0731
     26 H           4.2321   -0.2672    1.2881 H       1  UNL1        0.0731
@<TRIPOS>BOND
     1     1     2    2
     2     2     3   am
     3     3     4    1
     4     4     5    1
     5     5     6    1
     6     2     7    1
     7     7     8   ar
     8     8     9   ar
     9     9    10   ar
    10    10    11   ar
    11    11    12    1
    12    12    13    1
    13    13    14    1
    14    14    15    1
    15    11     7   ar
    16    15    10    1
    17     3    16    1
    18     4    17    1
    19     4    18    1
    20     5    19    1
    21     5    20    1
    22     6    21    1
    23     9    22    1
    24    13    23    1
    25    13    24    1
    26    14    25    1
    27    14    26    1
