@<TRIPOS>MOLECULE
*****
 39 45 0 0 0
SMALL
GASTEIGER

@<TRIPOS>ATOM
      1 SI         -5.3975    0.0472   -0.1374 Si      1  UNL1        0.0000
      2 C          -5.8512    1.8460    0.0352 C.2     1  UNL1        0.0000
      3 C          -4.7611    2.6239    0.1418 C.2     1  UNL1        0.0000
      4 C          -3.4914    1.8811    0.0975 C.ar    1  UNL1        0.0000
      5 N          -2.3469    2.5752    0.1969 N.ar    1  UNL1        0.0000
      6 C          -1.2135    1.8417    0.1501 C.ar    1  UNL1        0.0000
      7 C          -1.1598    0.4444    0.0086 C.ar    1  UNL1        0.0000
      8 C           0.1160   -0.2011   -0.0256 C.ar    1  UNL1        0.0000
      9 N           1.4142    0.2718    0.0550 N.ar    1  UNL1        0.0000
     10 C           2.3403   -0.7533   -0.0266 C.ar    1  UNL1        0.0000
     11 C           1.6212   -1.9336   -0.1652 C.ar    1  UNL1        0.0000
     12 C           0.2779   -1.5621   -0.1607 C.ar    1  UNL1        0.0000
     13 C          -0.8906   -2.3605   -0.2714 C.ar    1  UNL1        0.0000
     14 C          -0.8807   -3.7174   -0.4099 C.ar    1  UNL1        0.0000
     15 S          -2.5020   -4.2697   -0.5067 S.2     1  UNL1        0.0000
     16 C          -3.1319   -2.6644   -0.3583 C.ar    1  UNL1        0.0000
     17 C          -2.1516   -1.7007   -0.2354 C.ar    1  UNL1        0.0000
     18 C          -2.3894   -0.2863   -0.0967 C.ar    1  UNL1        0.0000
     19 C          -3.5820    0.4804   -0.0480 C.ar    1  UNL1        0.0000
     20 C           3.7669   -0.5491    0.0299 C.ar    1  UNL1        0.0000
     21 S           4.8583   -1.8970   -0.0810 S.2     1  UNL1        0.0000
     22 C           6.2628   -0.9244    0.0536 C.ar    1  UNL1        0.0000
     23 C           5.9184    0.3881    0.1795 C.ar    1  UNL1        0.0000
     24 S           6.9654    1.8442    0.3548 S.2     1  UNL1        0.0000
     25 C           5.4563    2.7314    0.4080 C.ar    1  UNL1        0.0000
     26 C           4.2846    1.9720    0.3011 C.ar    1  UNL1        0.0000
     27 C           4.5306    0.5717    0.1637 C.ar    1  UNL1        0.0000
     28 H          -5.7900   -0.5087   -1.4558 H       1  UNL1        0.0000
     29 H          -5.8515   -0.7618    1.0204 H       1  UNL1        0.0000
     30 H          -6.8778    2.1780    0.0436 H       1  UNL1        0.0000
     31 H          -4.7619    3.6991    0.2517 H       1  UNL1        0.0000
     32 H          -0.3133    2.4427    0.2339 H       1  UNL1        0.0000
     33 H           1.6498    1.2440    0.1602 H       1  UNL1        0.0000
     34 H           2.0363   -2.9284   -0.2565 H       1  UNL1        0.0000
     35 H          -0.0515   -4.4088   -0.4599 H       1  UNL1        0.0000
     36 H          -4.2041   -2.5739   -0.3758 H       1  UNL1        0.0000
     37 H           7.2619   -1.3377    0.0362 H       1  UNL1        0.0000
     38 H           5.5214    3.8055    0.5197 H       1  UNL1        0.0000
     39 H           3.3170    2.4509    0.3261 H       1  UNL1        0.0000
@<TRIPOS>BOND
     1     1     2    1
     2     2     3    2
     3     3     4    1
     4     4     5   ar
     5     5     6   ar
     6     6     7   ar
     7     7     8   ar
     8     8     9   ar
     9     9    10   ar
    10    10    11   ar
    11    11    12   ar
    12    12    13   ar
    13    13    14   ar
    14    14    15   ar
    15    15    16   ar
    16    16    17   ar
    17    17    18   ar
    18    18    19   ar
    19    10    20    1
    20    20    21   ar
    21    21    22   ar
    22    22    23   ar
    23    23    24   ar
    24    24    25   ar
    25    25    26   ar
    26    26    27   ar
    27    19     1    1
    28    27    20   ar
    29    19     4   ar
    30    27    23   ar
    31    18     7   ar
    32    12     8   ar
    33    17    13   ar
    34     1    28    1
    35     1    29    1
    36     2    30    1
    37     3    31    1
    38     6    32    1
    39     9    33    1
    40    11    34    1
    41    14    35    1
    42    16    36    1
    43    22    37    1
    44    25    38    1
    45    26    39    1
