@<TRIPOS>MOLECULE
*****
 43 45 0 0 0
SMALL
GASTEIGER

@<TRIPOS>ATOM
      1 O           0.1919   -1.1340    1.5598 O.2     1  UNL1       -0.2702
      2 C          -0.5066   -1.1076    0.5522 C.2     1  UNL1        0.2448
      3 N          -0.1128   -0.5154   -0.6271 N.am    1  UNL1       -0.3081
      4 C           1.1115    0.2549   -0.7102 C.3     1  UNL1        0.0461
      5 C           2.3689   -0.6175   -0.7376 C.3     1  UNL1        0.1050
      6 O           3.5466    0.1846   -0.8513 O.3     1  UNL1       -0.4904
      7 C           4.1190    0.6615    0.2954 C.ar    1  UNL1        0.1207
      8 C           3.6252    0.5098    1.5939 C.ar    1  UNL1       -0.0172
      9 C           4.3189    1.0606    2.6763 C.ar    1  UNL1       -0.0230
     10 C           5.4992    1.7598    2.4567 C.ar    1  UNL1        0.1236
     11 F           6.1596    2.2860    3.4963 F       1  UNL1       -0.2055
     12 C           6.0018    1.9213    1.1730 C.ar    1  UNL1       -0.0230
     13 C           5.3087    1.3717    0.0933 C.ar    1  UNL1       -0.0172
     14 C          -1.8270   -1.7924    0.5437 C.ar    1  UNL1        0.0444
     15 C          -1.8473   -3.0846    1.0968 C.ar    1  UNL1       -0.0490
     16 C          -3.0258   -3.8273    1.1180 C.ar    1  UNL1       -0.0610
     17 C          -4.1932   -3.2817    0.5960 C.ar    1  UNL1       -0.0611
     18 C          -4.1845   -1.9896    0.0632 C.ar    1  UNL1       -0.0533
     19 C          -3.0082   -1.2127    0.0301 C.ar    1  UNL1       -0.0058
     20 C          -3.0852    0.1631   -0.4924 C.ar    1  UNL1       -0.0172
     21 C          -3.4673    0.4067   -1.8228 C.ar    1  UNL1       -0.0540
     22 C          -3.5301    1.7090   -2.3245 C.ar    1  UNL1       -0.0612
     23 C          -3.2160    2.7883   -1.5024 C.ar    1  UNL1       -0.0617
     24 C          -2.8433    2.5676   -0.1788 C.ar    1  UNL1       -0.0612
     25 C          -2.7817    1.2656    0.3231 C.ar    1  UNL1       -0.0540
     26 H          -0.7468   -0.4994   -1.4159 H       1  UNL1        0.1491
     27 H           1.0597    0.8620   -1.6210 H       1  UNL1        0.0495
     28 H           1.1377    0.9553    0.1315 H       1  UNL1        0.0495
     29 H           2.4302   -1.3256    0.0964 H       1  UNL1        0.0712
     30 H           2.3344   -1.2432   -1.6382 H       1  UNL1        0.0712
     31 H           2.7031   -0.0243    1.8054 H       1  UNL1        0.0655
     32 H           3.9407    0.9469    3.6875 H       1  UNL1        0.0647
     33 H           6.9245    2.4705    1.0190 H       1  UNL1        0.0647
     34 H           5.6978    1.4948   -0.9145 H       1  UNL1        0.0655
     35 H          -0.9357   -3.5134    1.5098 H       1  UNL1        0.0625
     36 H          -3.0319   -4.8269    1.5454 H       1  UNL1        0.0618
     37 H          -5.1177   -3.8539    0.6160 H       1  UNL1        0.0618
     38 H          -5.1202   -1.5752   -0.3108 H       1  UNL1        0.0624
     39 H          -3.7150   -0.4227   -2.4828 H       1  UNL1        0.0624
     40 H          -3.8259    1.8806   -3.3564 H       1  UNL1        0.0618
     41 H          -3.2651    3.8023   -1.8912 H       1  UNL1        0.0618
     42 H          -2.6008    3.4083    0.4666 H       1  UNL1        0.0618
     43 H          -2.4909    1.1164    1.3621 H       1  UNL1        0.0624
@<TRIPOS>BOND
     1     1     2    2
     2     2     3   am
     3     3     4    1
     4     4     5    1
     5     5     6    1
     6     6     7    1
     7     7     8   ar
     8     8     9   ar
     9     9    10   ar
    10    10    11    1
    11    10    12   ar
    12    12    13   ar
    13     2    14    1
    14    14    15   ar
    15    15    16   ar
    16    16    17   ar
    17    17    18   ar
    18    18    19   ar
    19    19    20    1
    20    20    21   ar
    21    21    22   ar
    22    22    23   ar
    23    23    24   ar
    24    24    25   ar
    25    13     7   ar
    26    19    14   ar
    27    25    20   ar
    28     3    26    1
    29     4    27    1
    30     4    28    1
    31     5    29    1
    32     5    30    1
    33     8    31    1
    34     9    32    1
    35    12    33    1
    36    13    34    1
    37    15    35    1
    38    16    36    1
    39    17    37    1
    40    18    38    1
    41    21    39    1
    42    22    40    1
    43    23    41    1
    44    24    42    1
    45    25    43    1
