@<TRIPOS>MOLECULE
*****
 33 34 0 0 0
SMALL
GASTEIGER

@<TRIPOS>ATOM
      1 O           2.0584    0.2506   -1.2421 O.2     1  UNL1       -0.2684
      2 C           2.5366    0.0729   -0.1266 C.2     1  UNL1        0.2643
      3 N           1.8511   -0.2921    1.0238 N.am    1  UNL1       -0.2029
      4 N           0.5172   -0.5945    1.1078 N.2     1  UNL1       -0.1880
      5 C          -0.3033   -0.0027    0.3003 C.2     1  UNL1        0.0457
      6 C          -1.7451   -0.3292    0.3275 C.2     1  UNL1       -0.0416
      7 C          -2.5803    0.2991   -0.5114 C.2     1  UNL1       -0.0531
      8 C          -4.0288    0.0537   -0.5573 C.ar    1  UNL1       -0.0250
      9 C          -4.5809   -1.2206   -0.3700 C.ar    1  UNL1       -0.0546
     10 C          -5.9624   -1.4161   -0.4505 C.ar    1  UNL1       -0.0612
     11 C          -6.8050   -0.3423   -0.7290 C.ar    1  UNL1       -0.0617
     12 C          -6.2674    0.9263   -0.9329 C.ar    1  UNL1       -0.0612
     13 C          -4.8861    1.1220   -0.8532 C.ar    1  UNL1       -0.0546
     14 C           4.0097    0.1556    0.0289 C.ar    1  UNL1        0.0523
     15 C           4.7761   -0.5714   -0.8962 C.ar    1  UNL1       -0.0485
     16 C           6.1690   -0.5673   -0.8182 C.ar    1  UNL1       -0.0610
     17 C           6.8055    0.1700    0.1773 C.ar    1  UNL1       -0.0607
     18 C           6.0514    0.9122    1.0886 C.ar    1  UNL1       -0.0470
     19 C           4.6528    0.9136    1.0158 C.ar    1  UNL1        0.0300
     20 BR          3.7289    2.0178    2.2535 Br      1  UNL1       -0.0495
     21 H           2.3881   -0.6183    1.8222 H       1  UNL1        0.1776
     22 H          -0.0039    0.7812   -0.4147 H       1  UNL1        0.0845
     23 H          -2.0603   -1.0719    1.0500 H       1  UNL1        0.0633
     24 H          -2.2091    1.0529   -1.2024 H       1  UNL1        0.0624
     25 H          -3.9438   -2.0790   -0.1713 H       1  UNL1        0.0623
     26 H          -6.3784   -2.4091   -0.3011 H       1  UNL1        0.0618
     27 H          -7.8792   -0.4953   -0.7924 H       1  UNL1        0.0618
     28 H          -6.9219    1.7650   -1.1557 H       1  UNL1        0.0618
     29 H          -4.4871    2.1207   -1.0164 H       1  UNL1        0.0623
     30 H           4.2835   -1.1445   -1.6805 H       1  UNL1        0.0625
     31 H           6.7553   -1.1353   -1.5369 H       1  UNL1        0.0618
     32 H           7.8917    0.1779    0.2371 H       1  UNL1        0.0618
     33 H           6.5677    1.4982    1.8461 H       1  UNL1        0.0629
@<TRIPOS>BOND
     1     1     2    2
     2     2     3   am
     3     3     4    1
     4     4     5    2
     5     5     6    1
     6     6     7    2
     7     7     8    1
     8     8     9   ar
     9     9    10   ar
    10    10    11   ar
    11    11    12   ar
    12    12    13   ar
    13     2    14    1
    14    14    15   ar
    15    15    16   ar
    16    16    17   ar
    17    17    18   ar
    18    18    19   ar
    19    19    20    1
    20    13     8   ar
    21    19    14   ar
    22     3    21    1
    23     5    22    1
    24     6    23    1
    25     7    24    1
    26     9    25    1
    27    10    26    1
    28    11    27    1
    29    12    28    1
    30    13    29    1
    31    15    30    1
    32    16    31    1
    33    17    32    1
    34    18    33    1
