@<TRIPOS>MOLECULE
*****
 42 44 0 0 0
SMALL
GASTEIGER

@<TRIPOS>ATOM
      1 O           0.1761    1.0017   -0.5386 O.2     1  UNL1       -0.2701
      2 C           0.0969    0.0819    0.2768 C.2     1  UNL1        0.2731
      3 N           1.1956   -0.5859    0.8359 N.am    1  UNL1       -0.2040
      4 N           2.4958   -0.1594    0.7593 N.2     1  UNL1       -0.1876
      5 C           2.9055    0.2890   -0.3854 C.2     1  UNL1        0.0542
      6 C           4.2670    0.8161   -0.5630 C.ar    1  UNL1        0.0126
      7 C           4.6693    1.2975   -1.8077 C.ar    1  UNL1       -0.0502
      8 C           5.9629    1.7931   -1.9556 C.ar    1  UNL1       -0.0430
      9 C           6.8023    1.7868   -0.8511 C.ar    1  UNL1        0.0276
     10 N           6.4393    1.3271    0.3668 N.ar    1  UNL1       -0.2626
     11 C           5.1746    0.8510    0.4858 C.ar    1  UNL1        0.0362
     12 C          -1.2658   -0.5160    0.8002 C.3     1  UNL1        0.1938
     13 O          -0.9838   -1.1576    2.0712 O.3     1  UNL1       -0.3711
     14 C          -1.7255   -1.5735   -0.2180 C.ar    1  UNL1       -0.0026
     15 C          -2.1088   -1.1812   -1.5156 C.ar    1  UNL1       -0.0550
     16 C          -2.5242   -2.1237   -2.4580 C.ar    1  UNL1       -0.0614
     17 C          -2.5617   -3.4744   -2.1229 C.ar    1  UNL1       -0.0617
     18 C          -2.1833   -3.8839   -0.8467 C.ar    1  UNL1       -0.0614
     19 C          -1.7674   -2.9427    0.0982 C.ar    1  UNL1       -0.0550
     20 C          -2.3411    0.5428    1.1173 C.ar    1  UNL1       -0.0026
     21 C          -3.6861    0.1514    1.2847 C.ar    1  UNL1       -0.0550
     22 C          -4.6741    1.0765    1.6295 C.ar    1  UNL1       -0.0614
     23 C          -4.3379    2.4105    1.8331 C.ar    1  UNL1       -0.0617
     24 C          -3.0138    2.8169    1.7001 C.ar    1  UNL1       -0.0614
     25 C          -2.0234    1.8920    1.3557 C.ar    1  UNL1       -0.0550
     26 H           0.9743   -1.1441    1.6621 H       1  UNL1        0.1773
     27 H           2.2730    0.2747   -1.2901 H       1  UNL1        0.0852
     28 H           3.9906    1.2942   -2.6559 H       1  UNL1        0.0625
     29 H           6.3093    2.1768   -2.9090 H       1  UNL1        0.0633
     30 H           7.8193    2.1635   -0.9187 H       1  UNL1        0.0829
     31 H           4.9127    0.4902    1.4766 H       1  UNL1        0.0836
     32 H          -1.2549   -0.5315    2.7670 H       1  UNL1        0.2116
     33 H          -2.0858   -0.1296   -1.8014 H       1  UNL1        0.0621
     34 H          -2.8171   -1.8014   -3.4539 H       1  UNL1        0.0618
     35 H          -2.8841   -4.2083   -2.8567 H       1  UNL1        0.0618
     36 H          -2.2100   -4.9386   -0.5848 H       1  UNL1        0.0618
     37 H          -1.4768   -3.2928    1.0867 H       1  UNL1        0.0621
     38 H          -3.9794   -0.8888    1.1478 H       1  UNL1        0.0621
     39 H          -5.7057    0.7520    1.7405 H       1  UNL1        0.0618
     40 H          -5.1057    3.1322    2.0992 H       1  UNL1        0.0618
     41 H          -2.7469    3.8583    1.8646 H       1  UNL1        0.0618
     42 H          -1.0012    2.2574    1.2744 H       1  UNL1        0.0621
@<TRIPOS>BOND
     1     1     2    2
     2     2     3   am
     3     3     4    1
     4     4     5    2
     5     5     6    1
     6     6     7   ar
     7     7     8   ar
     8     8     9   ar
     9     9    10   ar
    10    10    11   ar
    11     2    12    1
    12    12    13    1
    13    12    14    1
    14    14    15   ar
    15    15    16   ar
    16    16    17   ar
    17    17    18   ar
    18    18    19   ar
    19    12    20    1
    20    20    21   ar
    21    21    22   ar
    22    22    23   ar
    23    23    24   ar
    24    24    25   ar
    25    11     6   ar
    26    19    14   ar
    27    25    20   ar
    28     3    26    1
    29     5    27    1
    30     7    28    1
    31     8    29    1
    32     9    30    1
    33    11    31    1
    34    13    32    1
    35    15    33    1
    36    16    34    1
    37    17    35    1
    38    18    36    1
    39    19    37    1
    40    21    38    1
    41    22    39    1
    42    23    40    1
    43    24    41    1
    44    25    42    1
