@<TRIPOS>MOLECULE
*****
 32 35 0 0 0
SMALL
GASTEIGER

@<TRIPOS>ATOM
      1 O           1.1627    1.1240   -0.9917 O.2     1  UNL1       -0.2686
      2 C           1.6942    0.2761   -0.2831 C.2     1  UNL1        0.2608
      3 N           1.0154   -0.7598    0.3323 N.am    1  UNL1       -0.2209
      4 N          -0.3747   -0.7171    0.2696 N.am    1  UNL1       -0.1545
      5 C          -1.0834   -1.2724   -0.7654 C.2     1  UNL1        0.2452
      6 O          -0.6539   -1.8566   -1.7497 O.2     1  UNL1       -0.2732
      7 C          -2.5427   -1.1164   -0.4486 C.3     1  UNL1        0.0811
      8 C          -3.1772    0.0113   -1.2602 C.3     1  UNL1        0.0896
      9 C          -4.6306    0.1124   -0.8923 C.2     1  UNL1       -0.0564
     10 C          -4.6692    0.6084    0.3543 C.2     1  UNL1       -0.0564
     11 C          -3.2405    0.8221    0.7661 C.3     1  UNL1        0.0896
     12 O          -2.6900    1.1712   -0.5317 O.3     1  UNL1       -0.3638
     13 C          -2.5751   -0.5336    0.9884 C.3     1  UNL1        0.0811
     14 C          -1.1301   -0.3774    1.3600 C.2     1  UNL1        0.2452
     15 O          -0.7210   -0.0634    2.4692 O.2     1  UNL1       -0.2732
     16 C           3.1517    0.3529   -0.0029 C.ar    1  UNL1        0.0410
     17 C           3.7757    1.5983   -0.0820 C.ar    1  UNL1       -0.0314
     18 C           5.1308    1.6630    0.1794 C.ar    1  UNL1        0.0283
     19 N           5.8820    0.5874    0.4997 N.ar    1  UNL1       -0.2632
     20 C           5.2578   -0.6082    0.5463 C.ar    1  UNL1        0.0283
     21 C           3.9061   -0.7800    0.3054 C.ar    1  UNL1       -0.0314
     22 H           1.3928   -1.1565    1.1863 H       1  UNL1        0.1738
     23 H          -3.0540   -2.0805   -0.5313 H       1  UNL1        0.0432
     24 H          -2.9371    0.0847   -2.3218 H       1  UNL1        0.0648
     25 H          -5.4659   -0.1870   -1.5052 H       1  UNL1        0.0595
     26 H          -5.5428    0.7942    0.9585 H       1  UNL1        0.0595
     27 H          -3.0577    1.6131    1.4948 H       1  UNL1        0.0648
     28 H          -3.0863   -1.1835    1.7050 H       1  UNL1        0.0432
     29 H           3.2197    2.4944   -0.3393 H       1  UNL1        0.0640
     30 H           5.6659    2.6077    0.1361 H       1  UNL1        0.0830
     31 H           5.8983   -1.4533    0.7843 H       1  UNL1        0.0830
     32 H           3.4793   -1.7754    0.3306 H       1  UNL1        0.0640
@<TRIPOS>BOND
     1     1     2    2
     2     2     3   am
     3     3     4    1
     4     4     5   am
     5     5     6    2
     6     5     7    1
     7     7     8    1
     8     8     9    1
     9     9    10    2
    10    10    11    1
    11    11    12    1
    12    11    13    1
    13    13    14    1
    14    14    15    2
    15     2    16    1
    16    16    17   ar
    17    17    18   ar
    18    18    19   ar
    19    19    20   ar
    20    20    21   ar
    21    14     4   am
    22    21    16   ar
    23    13     7    1
    24    12     8    1
    25     3    22    1
    26     7    23    1
    27     8    24    1
    28     9    25    1
    29    10    26    1
    30    11    27    1
    31    13    28    1
    32    17    29    1
    33    18    30    1
    34    20    31    1
    35    21    32    1
