@<TRIPOS>MOLECULE
*****
 31 33 0 0 0
SMALL
GASTEIGER

@<TRIPOS>ATOM
      1 O           7.0395    1.0117    0.0036 O.2     1  UNL1       -0.2458
      2 C           6.1515    0.2033    0.2059 C.2     1  UNL1        0.3296
      3 O           6.4120   -1.0256    0.6762 O.3     1  UNL1       -0.4775
      4 C           4.7252    0.4637   -0.0319 C.2     1  UNL1        0.0229
      5 C           3.7579   -0.4389    0.1944 C.2     1  UNL1       -0.0478
      6 C           2.3253   -0.1783   -0.0311 C.ar    1  UNL1       -0.0227
      7 C           1.3996   -0.7338    0.9181 C.ar    1  UNL1       -0.0538
      8 C          -0.0044   -0.6016    0.8400 C.ar    1  UNL1       -0.0483
      9 C          -0.3807    0.1238   -0.2870 C.ar    1  UNL1        0.0490
     10 C          -1.6533    0.4502   -0.6783 C.ar    1  UNL1        0.1749
     11 C          -3.0094    0.2041   -0.2114 C.ar    1  UNL1        0.0206
     12 C          -3.9749    1.2205   -0.2658 C.ar    1  UNL1       -0.0510
     13 C          -5.2779    0.9932    0.1841 C.ar    1  UNL1       -0.0611
     14 C          -5.6327   -0.2553    0.6895 C.ar    1  UNL1       -0.0617
     15 C          -4.6875   -1.2773    0.7418 C.ar    1  UNL1       -0.0611
     16 C          -3.3837   -1.0493    0.2925 C.ar    1  UNL1       -0.0510
     17 O          -1.5542    1.1923   -1.8235 O.2     1  UNL1       -0.3535
     18 N          -0.2295    1.3416   -2.1950 N.ar    1  UNL1       -0.0776
     19 C           0.5023    0.7013   -1.2694 C.ar    1  UNL1        0.1145
     20 C           1.8969    0.5526   -1.1668 C.ar    1  UNL1       -0.0253
     21 H           7.3868   -1.0342    0.7745 H       1  UNL1        0.2954
     22 H           4.5135    1.4618   -0.3990 H       1  UNL1        0.0689
     23 H           4.0020   -1.4242    0.5868 H       1  UNL1        0.0626
     24 H           1.7996   -1.2886    1.7699 H       1  UNL1        0.0624
     25 H          -0.6734   -1.0135    1.5827 H       1  UNL1        0.0625
     26 H          -3.7168    2.2034   -0.6562 H       1  UNL1        0.0625
     27 H          -6.0145    1.7914    0.1374 H       1  UNL1        0.0618
     28 H          -6.6474   -0.4332    1.0369 H       1  UNL1        0.0618
     29 H          -4.9664   -2.2553    1.1260 H       1  UNL1        0.0618
     30 H          -2.6714   -1.8702    0.3225 H       1  UNL1        0.0625
     31 H           2.5659    0.9646   -1.9096 H       1  UNL1        0.0646
@<TRIPOS>BOND
     1     1     2    2
     2     2     3    1
     3     2     4    1
     4     4     5    2
     5     5     6    1
     6     6     7   ar
     7     7     8   ar
     8     8     9   ar
     9     9    10   ar
    10    10    11    1
    11    11    12   ar
    12    12    13   ar
    13    13    14   ar
    14    14    15   ar
    15    15    16   ar
    16    10    17   ar
    17    17    18   ar
    18    18    19   ar
    19    19    20   ar
    20    20     6   ar
    21    19     9   ar
    22    16    11   ar
    23     3    21    1
    24     4    22    1
    25     5    23    1
    26     7    24    1
    27     8    25    1
    28    12    26    1
    29    13    27    1
    30    14    28    1
    31    15    29    1
    32    16    30    1
    33    20    31    1
