@<TRIPOS>MOLECULE
*****
 39 41 0 0 0
SMALL
GASTEIGER

@<TRIPOS>ATOM
      1 O          -1.0293    1.8173    1.2772 O.2     1  UNL1       -0.2507
      2 C          -2.0448    1.5348    0.6556 C.2     1  UNL1        0.3091
      3 O          -2.5322    2.3725   -0.2690 O.3     1  UNL1       -0.4804
      4 C          -2.8172    0.2540    0.8430 C.3     1  UNL1        0.0741
      5 C          -4.1907    0.2215    0.1209 C.3     1  UNL1       -0.0087
      6 C          -4.9594   -0.9634    0.6692 C.2     1  UNL1       -0.0837
      7 C          -4.3577   -2.0714    0.2105 C.2     1  UNL1       -0.0838
      8 C          -3.1925   -1.6259   -0.6487 C.3     1  UNL1       -0.0105
      9 C          -3.8204   -0.3623   -1.2456 C.3     1  UNL1       -0.0390
     10 C          -2.1097   -1.0297    0.2929 C.3     1  UNL1        0.0552
     11 C          -0.7921   -0.8153   -0.4447 C.2     1  UNL1        0.2175
     12 O          -0.6714   -0.9642   -1.6560 O.2     1  UNL1       -0.2755
     13 N           0.2624   -0.4723    0.3779 N.am    1  UNL1       -0.3147
     14 C           1.5487   -0.1237   -0.2016 C.3     1  UNL1        0.0156
     15 C           2.6544   -0.1124    0.8527 C.3     1  UNL1       -0.0120
     16 C           3.9847    0.2931    0.2745 C.ar    1  UNL1       -0.0430
     17 C           4.4224    1.6178    0.3465 C.ar    1  UNL1       -0.0404
     18 C           5.6481    1.9441   -0.2141 C.ar    1  UNL1        0.0278
     19 N           6.4517    1.0552   -0.8351 N.ar    1  UNL1       -0.2632
     20 C           6.0079   -0.2181   -0.8994 C.ar    1  UNL1        0.0278
     21 C           4.7991   -0.6424   -0.3689 C.ar    1  UNL1       -0.0404
     22 H          -1.9082    3.1284   -0.2904 H       1  UNL1        0.2951
     23 H          -2.9810    0.1616    1.9259 H       1  UNL1        0.0427
     24 H          -4.7613    1.1506    0.0841 H       1  UNL1        0.0351
     25 H          -5.8065   -0.9156    1.3370 H       1  UNL1        0.0572
     26 H          -4.6233   -3.0941    0.4332 H       1  UNL1        0.0572
     27 H          -2.8642   -2.3622   -1.3840 H       1  UNL1        0.0351
     28 H          -3.1146    0.2535   -1.8119 H       1  UNL1        0.0277
     29 H          -4.6915   -0.5682   -1.8814 H       1  UNL1        0.0277
     30 H          -1.9063   -1.7291    1.1159 H       1  UNL1        0.0408
     31 H           0.0165    0.0236    1.2311 H       1  UNL1        0.1487
     32 H           1.4398    0.8636   -0.6664 H       1  UNL1        0.0465
     33 H           1.7818   -0.8370   -1.0012 H       1  UNL1        0.0465
     34 H           2.3856    0.5679    1.6714 H       1  UNL1        0.0328
     35 H           2.7442   -1.1040    1.3151 H       1  UNL1        0.0328
     36 H           3.8270    2.3862    0.8284 H       1  UNL1        0.0635
     37 H           6.0261    2.9618   -0.1777 H       1  UNL1        0.0829
     38 H           6.6703   -0.9136   -1.4067 H       1  UNL1        0.0829
     39 H           4.5037   -1.6826   -0.4600 H       1  UNL1        0.0635
@<TRIPOS>BOND
     1     1     2    2
     2     2     3    1
     3     2     4    1
     4     4     5    1
     5     5     6    1
     6     6     7    2
     7     7     8    1
     8     8     9    1
     9     8    10    1
    10    10    11    1
    11    11    12    2
    12    11    13   am
    13    13    14    1
    14    14    15    1
    15    15    16    1
    16    16    17   ar
    17    17    18   ar
    18    18    19   ar
    19    19    20   ar
    20    20    21   ar
    21    10     4    1
    22    21    16   ar
    23     9     5    1
    24     3    22    1
    25     4    23    1
    26     5    24    1
    27     6    25    1
    28     7    26    1
    29     8    27    1
    30     9    28    1
    31     9    29    1
    32    10    30    1
    33    13    31    1
    34    14    32    1
    35    14    33    1
    36    15    34    1
    37    15    35    1
    38    17    36    1
    39    18    37    1
    40    20    38    1
    41    21    39    1
