@<TRIPOS>MOLECULE
*****
 33 34 0 0 0
SMALL
GASTEIGER

@<TRIPOS>ATOM
      1 O          -0.3263   -0.4299    2.6644 O.2     1  UNL1       -0.2450
      2 C           0.7941   -0.7146    2.2902 C.2     1  UNL1        0.3404
      3 O           1.6005   -1.4883    3.0443 O.3     1  UNL1       -0.4770
      4 C           1.4691   -0.3012    1.0350 C.ar    1  UNL1        0.1009
      5 C           2.8524   -0.0539    1.0593 C.ar    1  UNL1       -0.0355
      6 C           3.5016    0.3722   -0.0989 C.ar    1  UNL1       -0.0028
      7 C           4.9535    0.6258   -0.0498 C.2     1  UNL1        0.0735
      8 N           5.6164    1.0315   -1.0860 N.2     1  UNL1       -0.0950
      9 O           6.9616    1.1823   -0.7300 O.2     1  UNL1       -0.4092
     10 C           2.7800    0.5525   -1.2796 C.ar    1  UNL1       -0.0495
     11 C           1.4038    0.3036   -1.3060 C.ar    1  UNL1       -0.0185
     12 C           0.7342   -0.1195   -0.1507 C.ar    1  UNL1        0.1350
     13 O          -0.5978   -0.4314   -0.1201 O.3     1  UNL1       -0.4866
     14 C          -1.4297    0.1226   -1.1410 C.3     1  UNL1        0.1147
     15 C          -2.8878   -0.0859   -0.7977 C.ar    1  UNL1       -0.0104
     16 C          -3.3421   -0.0083    0.5272 C.ar    1  UNL1       -0.0554
     17 C          -4.6971   -0.1637    0.8251 C.ar    1  UNL1       -0.0614
     18 C          -5.6160   -0.3866   -0.1979 C.ar    1  UNL1       -0.0617
     19 C          -5.1813   -0.4516   -1.5200 C.ar    1  UNL1       -0.0614
     20 C          -3.8261   -0.2971   -1.8196 C.ar    1  UNL1       -0.0554
     21 H           1.0381   -1.7184    3.8142 H       1  UNL1        0.2954
     22 H           3.4114   -0.1883    1.9824 H       1  UNL1        0.0633
     23 H           5.4621    0.4555    0.9169 H       1  UNL1        0.0869
     24 H           7.3670    1.4831   -1.5647 H       1  UNL1        0.3278
     25 H           3.2834    0.8787   -2.1878 H       1  UNL1        0.0625
     26 H           0.8877    0.4322   -2.2525 H       1  UNL1        0.0654
     27 H          -1.2111   -0.3847   -2.0881 H       1  UNL1        0.0748
     28 H          -1.2553    1.2011   -1.2424 H       1  UNL1        0.0748
     29 H          -2.6382    0.1670    1.3399 H       1  UNL1        0.0621
     30 H          -5.0317   -0.1103    1.8578 H       1  UNL1        0.0618
     31 H          -6.6702   -0.5079    0.0359 H       1  UNL1        0.0618
     32 H          -5.8985   -0.6214   -2.3187 H       1  UNL1        0.0618
     33 H          -3.5078   -0.3453   -2.8585 H       1  UNL1        0.0621
@<TRIPOS>BOND
     1     1     2    2
     2     2     3    1
     3     2     4    1
     4     4     5   ar
     5     5     6   ar
     6     6     7    1
     7     7     8    2
     8     8     9    1
     9     6    10   ar
    10    10    11   ar
    11    11    12   ar
    12    12    13    1
    13    13    14    1
    14    14    15    1
    15    15    16   ar
    16    16    17   ar
    17    17    18   ar
    18    18    19   ar
    19    19    20   ar
    20    12     4   ar
    21    20    15   ar
    22     3    21    1
    23     5    22    1
    24     7    23    1
    25     9    24    1
    26    10    25    1
    27    11    26    1
    28    14    27    1
    29    14    28    1
    30    16    29    1
    31    17    30    1
    32    18    31    1
    33    19    32    1
    34    20    33    1
