@<TRIPOS>MOLECULE
*****
 26 27 0 0 0
SMALL
GASTEIGER

@<TRIPOS>ATOM
      1 O           5.1152    0.8048   -1.9544 O.2     1  UNL1       -0.2417
      2 C           4.9349    0.7244   -0.7478 C.2     1  UNL1        0.3725
      3 O           5.9863    0.8321    0.0985 O.3     1  UNL1       -0.4750
      4 C           3.7021    0.5200   -0.0361 C.ar    1  UNL1        0.2116
      5 C           3.4080    0.4172    1.3116 C.ar    1  UNL1       -0.0089
      6 C           2.0107    0.2177    1.4142 C.ar    1  UNL1       -0.0164
      7 C           1.5212    0.2087    0.1247 C.ar    1  UNL1        0.1432
      8 C           0.1701    0.0479   -0.4766 C.3     1  UNL1        0.1469
      9 O          -0.7593   -0.1306    0.5924 O.3     1  UNL1       -0.4843
     10 C          -2.0728   -0.2981    0.2516 C.ar    1  UNL1        0.1212
     11 C          -2.9374   -0.4684    1.3378 C.ar    1  UNL1       -0.0185
     12 C          -4.3076   -0.6502    1.1367 C.ar    1  UNL1       -0.0399
     13 C          -4.8161   -0.6616   -0.1586 C.ar    1  UNL1        0.0412
     14 CL         -6.5020   -0.8848   -0.4156 Cl      1  UNL1       -0.0835
     15 C          -3.9647   -0.4929   -1.2488 C.ar    1  UNL1       -0.0399
     16 C          -2.5920   -0.3110   -1.0446 C.ar    1  UNL1       -0.0185
     17 O           2.5454    0.3919   -0.7589 O.2     1  UNL1       -0.4497
     18 H           6.7408    0.9652   -0.5113 H       1  UNL1        0.2955
     19 H           4.1251    0.4801    2.1188 H       1  UNL1        0.0658
     20 H           1.4246    0.0947    2.3150 H       1  UNL1        0.0653
     21 H          -0.0756    0.9504   -1.0484 H       1  UNL1        0.0779
     22 H           0.1728   -0.8322   -1.1302 H       1  UNL1        0.0779
     23 H          -2.5398   -0.4594    2.3501 H       1  UNL1        0.0654
     24 H          -4.9658   -0.7811    1.9910 H       1  UNL1        0.0633
     25 H          -4.3615   -0.5018   -2.2608 H       1  UNL1        0.0633
     26 H          -1.9626   -0.1831   -1.9194 H       1  UNL1        0.0654
@<TRIPOS>BOND
     1     1     2    2
     2     2     3    1
     3     2     4    1
     4     4     5   ar
     5     5     6   ar
     6     6     7   ar
     7     7     8    1
     8     8     9    1
     9     9    10    1
    10    10    11   ar
    11    11    12   ar
    12    12    13   ar
    13    13    14    1
    14    13    15   ar
    15    15    16   ar
    16     7    17   ar
    17    17     4   ar
    18    16    10   ar
    19     3    18    1
    20     5    19    1
    21     6    20    1
    22     8    21    1
    23     8    22    1
    24    11    23    1
    25    12    24    1
    26    15    25    1
    27    16    26    1
