@<TRIPOS>MOLECULE
*****
 37 39 0 0 0
SMALL
GASTEIGER

@<TRIPOS>ATOM
      1 O           1.3036    3.4417    1.7888 O.2     1  UNL1       -0.2451
      2 C           1.9731    3.2581    0.7890 C.2     1  UNL1        0.3368
      3 O           3.1750    3.8502    0.6386 O.3     1  UNL1       -0.4771
      4 C           1.5925    2.4124   -0.3699 C.ar    1  UNL1        0.0589
      5 C           2.4651    2.1835   -1.4416 C.ar    1  UNL1       -0.0475
      6 C           2.0754    1.3481   -2.4940 C.ar    1  UNL1       -0.0570
      7 C           0.8131    0.7259   -2.4874 C.ar    1  UNL1       -0.0370
      8 C           0.4267   -0.2377   -3.5872 C.3     1  UNL1        0.0278
      9 S           1.1999   -1.8725   -3.3737 S.3     1  UNL1       -0.0609
     10 C           0.1690   -2.4926   -2.1268 C.ar    1  UNL1        0.2777
     11 N          -0.9654   -3.1266   -2.3516 N.ar    1  UNL1       -0.1010
     12 N          -1.5110   -3.4107   -1.1161 N.ar    1  UNL1       -0.1113
     13 C          -0.6692   -2.9250   -0.2230 C.ar    1  UNL1        0.2225
     14 C          -0.7535   -2.9339    1.2581 C.3     1  UNL1        0.0507
     15 C          -1.2171   -1.6122    1.8315 C.ar    1  UNL1       -0.0384
     16 C          -0.3119   -0.7593    2.4854 C.ar    1  UNL1       -0.0581
     17 C          -0.7463    0.4585    3.0113 C.ar    1  UNL1       -0.0615
     18 C          -2.0854    0.8363    2.8846 C.ar    1  UNL1       -0.0617
     19 C          -2.9919    0.0022    2.2288 C.ar    1  UNL1       -0.0615
     20 C          -2.5623   -1.2186    1.7061 C.ar    1  UNL1       -0.0581
     21 O           0.4306   -2.3380   -0.7896 O.2     1  UNL1       -0.4152
     22 C          -0.0619    0.9755   -1.4180 C.ar    1  UNL1       -0.0570
     23 C           0.3240    1.8157   -0.3699 C.ar    1  UNL1       -0.0475
     24 H           3.2788    4.3822    1.4550 H       1  UNL1        0.2954
     25 H           3.4540    2.6380   -1.4616 H       1  UNL1        0.0626
     26 H           2.7702    1.1654   -3.3119 H       1  UNL1        0.0621
     27 H           0.7551    0.1711   -4.5496 H       1  UNL1        0.0430
     28 H          -0.6649   -0.3357   -3.6545 H       1  UNL1        0.0430
     29 H           0.2234   -3.2069    1.6787 H       1  UNL1        0.0409
     30 H          -1.4476   -3.7200    1.5817 H       1  UNL1        0.0409
     31 H           0.7377   -1.0310    2.5894 H       1  UNL1        0.0620
     32 H          -0.0371    1.1202    3.5102 H       1  UNL1        0.0618
     33 H          -2.4176    1.7890    3.2909 H       1  UNL1        0.0618
     34 H          -4.0338    0.3048    2.1252 H       1  UNL1        0.0618
     35 H          -3.2814   -1.8617    1.1972 H       1  UNL1        0.0620
     36 H          -1.0442    0.5006   -1.3799 H       1  UNL1        0.0621
     37 H          -0.3649    1.9886    0.4556 H       1  UNL1        0.0626
@<TRIPOS>BOND
     1     1     2    2
     2     2     3    1
     3     2     4    1
     4     4     5   ar
     5     5     6   ar
     6     6     7   ar
     7     7     8    1
     8     8     9    1
     9     9    10    1
    10    10    11   ar
    11    11    12   ar
    12    12    13   ar
    13    13    14    1
    14    14    15    1
    15    15    16   ar
    16    16    17   ar
    17    17    18   ar
    18    18    19   ar
    19    19    20   ar
    20    13    21   ar
    21     7    22   ar
    22    22    23   ar
    23    23     4   ar
    24    21    10   ar
    25    20    15   ar
    26     3    24    1
    27     5    25    1
    28     6    26    1
    29     8    27    1
    30     8    28    1
    31    14    29    1
    32    14    30    1
    33    16    31    1
    34    17    32    1
    35    18    33    1
    36    19    34    1
    37    20    35    1
    38    22    36    1
    39    23    37    1
