@<TRIPOS>MOLECULE
*****
 34 36 0 0 0
SMALL
GASTEIGER

@<TRIPOS>ATOM
      1 O          -3.9635    1.9109    3.2976 O.2     1  UNL1       -0.2451
      2 C          -4.1976    1.7048    2.1208 C.2     1  UNL1        0.3368
      3 O          -5.3178    2.1696    1.5408 O.3     1  UNL1       -0.4771
      4 C          -3.3378    0.9459    1.1813 C.ar    1  UNL1        0.0590
      5 C          -2.1423    0.4047    1.6609 C.ar    1  UNL1       -0.0458
      6 C          -1.2981   -0.3336    0.8138 C.ar    1  UNL1       -0.0353
      7 C          -1.6453   -0.5422   -0.5259 C.ar    1  UNL1        0.0699
      8 N          -0.8316   -1.2843   -1.4345 N.ar    1  UNL1       -0.1875
      9 N          -1.0810   -1.2134   -2.7744 N.ar    1  UNL1       -0.0382
     10 N          -0.1269   -1.8998   -3.3786 N.ar    1  UNL1       -0.0218
     11 N           0.7257   -2.4546   -2.4722 N.ar    1  UNL1       -0.1011
     12 C           0.2731   -2.1133   -1.2854 C.ar    1  UNL1        0.2143
     13 S           0.9482   -2.7144    0.1891 S.3     1  UNL1       -0.0794
     14 C           2.6991   -2.2883   -0.0624 C.3     1  UNL1        0.0290
     15 C           2.9503   -0.8038   -0.0050 C.ar    1  UNL1       -0.0020
     16 C           3.0050   -0.0332   -1.1747 C.ar    1  UNL1       -0.0550
     17 C           3.2192    1.3456   -1.1021 C.ar    1  UNL1       -0.0613
     18 C           3.3808    1.9699    0.1362 C.ar    1  UNL1       -0.0590
     19 C           3.3331    1.2124    1.3038 C.ar    1  UNL1       -0.0262
     20 C           3.1164   -0.1623    1.2260 C.ar    1  UNL1        0.1274
     21 F           3.0632   -0.8741    2.3629 F       1  UNL1       -0.2052
     22 C          -2.8406    0.0287   -1.0068 C.ar    1  UNL1       -0.0353
     23 C          -3.6817    0.7617   -0.1595 C.ar    1  UNL1       -0.0458
     24 H          -5.7768    2.6449    2.2634 H       1  UNL1        0.2954
     25 H          -1.8535    0.5576    2.7000 H       1  UNL1        0.0626
     26 H          -0.3705   -0.6899    1.2489 H       1  UNL1        0.0639
     27 H           3.2856   -2.7891    0.7181 H       1  UNL1        0.0430
     28 H           3.0565   -2.7032   -1.0144 H       1  UNL1        0.0430
     29 H           2.8826   -0.5007   -2.1522 H       1  UNL1        0.0621
     30 H           3.2581    1.9385   -2.0122 H       1  UNL1        0.0618
     31 H           3.5535    3.0427    0.1884 H       1  UNL1        0.0618
     32 H           3.4661    1.6800    2.2741 H       1  UNL1        0.0646
     33 H          -3.1504   -0.0959   -2.0451 H       1  UNL1        0.0639
     34 H          -4.6011    1.1783   -0.5597 H       1  UNL1        0.0626
@<TRIPOS>BOND
     1     1     2    2
     2     2     3    1
     3     2     4    1
     4     4     5   ar
     5     5     6   ar
     6     6     7   ar
     7     7     8    1
     8     8     9   ar
     9     9    10   ar
    10    10    11   ar
    11    11    12   ar
    12    12    13    1
    13    13    14    1
    14    14    15    1
    15    15    16   ar
    16    16    17   ar
    17    17    18   ar
    18    18    19   ar
    19    19    20   ar
    20    20    21    1
    21     7    22   ar
    22    22    23   ar
    23    23     4   ar
    24    12     8   ar
    25    20    15   ar
    26     3    24    1
    27     5    25    1
    28     6    26    1
    29    14    27    1
    30    14    28    1
    31    16    29    1
    32    17    30    1
    33    18    31    1
    34    19    32    1
    35    22    33    1
    36    23    34    1
