@<TRIPOS>MOLECULE
*****
 41 46 0 0 0
SMALL
GASTEIGER

@<TRIPOS>ATOM
      1 SI         -5.4798   -0.2319   -0.8653 Si      1  UNL1        0.0000
      2 C          -6.4857   -0.0204    0.6944 C.2     1  UNL1        0.0000
      3 C          -5.6989    0.1359    1.7726 C.2     1  UNL1        0.0000
      4 C          -4.2600    0.1029    1.4673 C.ar    1  UNL1        0.0000
      5 N          -3.3875    0.2497    2.4727 N.ar    1  UNL1        0.0000
      6 C          -2.0772    0.2101    2.1258 C.ar    1  UNL1        0.0000
      7 C          -1.5568    0.0319    0.8298 C.ar    1  UNL1        0.0000
      8 C          -0.1337    0.0037    0.5614 C.ar    1  UNL1        0.0000
      9 SI          1.3329    0.1836    1.7803 Si      1  UNL1        0.0000
     10 C           2.5361   -0.0150    0.3357 C.2     1  UNL1        0.0000
     11 C           1.9124   -0.1796   -0.8482 C.2     1  UNL1        0.0000
     12 C           0.4595   -0.1725   -0.7257 C.ar    1  UNL1        0.0000
     13 C          -0.4882   -0.3184   -1.7231 C.ar    1  UNL1        0.0000
     14 C          -0.2557   -0.5048   -3.0619 C.ar    1  UNL1        0.0000
     15 N          -1.4842   -0.5986   -3.6705 N.ar    1  UNL1        0.0000
     16 C          -2.4919   -0.4737   -2.7339 C.ar    1  UNL1        0.0000
     17 C          -1.9067   -0.2969   -1.5013 C.ar    1  UNL1        0.0000
     18 C          -2.5359   -0.1218   -0.2208 C.ar    1  UNL1        0.0000
     19 C          -3.9075   -0.0831    0.1212 C.ar    1  UNL1        0.0000
     20 C           3.9806    0.0328    0.5337 C.ar    1  UNL1        0.0000
     21 C           4.6471   -0.9856    1.2268 C.ar    1  UNL1        0.0000
     22 C           6.0317   -0.9316    1.4037 C.ar    1  UNL1        0.0000
     23 C           6.7611    0.1366    0.8845 C.ar    1  UNL1        0.0000
     24 C           6.1085    1.1494    0.1841 C.ar    1  UNL1        0.0000
     25 C           4.7245    1.0962    0.0060 C.ar    1  UNL1        0.0000
     26 H          -5.6737   -1.5746   -1.4683 H       1  UNL1        0.0000
     27 H          -5.6904    0.8911   -1.8134 H       1  UNL1        0.0000
     28 H          -7.5644   -0.0294    0.6826 H       1  UNL1        0.0000
     29 H          -6.0393    0.2758    2.7887 H       1  UNL1        0.0000
     30 H          -1.4228    0.3352    2.9846 H       1  UNL1        0.0000
     31 H           1.3617    1.5370    2.3914 H       1  UNL1        0.0000
     32 H           1.3823   -0.9517    2.7375 H       1  UNL1        0.0000
     33 H           2.4102   -0.3083   -1.7991 H       1  UNL1        0.0000
     34 H           0.6543   -0.5807   -3.6412 H       1  UNL1        0.0000
     35 H          -1.6305   -0.7394   -4.6620 H       1  UNL1        0.0000
     36 H          -3.5148   -0.5280   -3.0708 H       1  UNL1        0.0000
     37 H           4.0978   -1.8354    1.6256 H       1  UNL1        0.0000
     38 H           6.5407   -1.7265    1.9425 H       1  UNL1        0.0000
     39 H           7.8386    0.1772    1.0216 H       1  UNL1        0.0000
     40 H           6.6762    1.9808   -0.2254 H       1  UNL1        0.0000
     41 H           4.2290    1.8934   -0.5438 H       1  UNL1        0.0000
@<TRIPOS>BOND
     1     1     2    1
     2     2     3    2
     3     3     4    1
     4     4     5   ar
     5     5     6   ar
     6     6     7   ar
     7     7     8   ar
     8     8     9    1
     9     9    10    1
    10    10    11    2
    11    11    12    1
    12    12    13   ar
    13    13    14   ar
    14    14    15   ar
    15    15    16   ar
    16    16    17   ar
    17    17    18   ar
    18    18    19   ar
    19    10    20    1
    20    20    21   ar
    21    21    22   ar
    22    22    23   ar
    23    23    24   ar
    24    24    25   ar
    25    19     1    1
    26    25    20   ar
    27    19     4   ar
    28    18     7   ar
    29    12     8   ar
    30    17    13   ar
    31     1    26    1
    32     1    27    1
    33     2    28    1
    34     3    29    1
    35     6    30    1
    36     9    31    1
    37     9    32    1
    38    11    33    1
    39    14    34    1
    40    15    35    1
    41    16    36    1
    42    21    37    1
    43    22    38    1
    44    23    39    1
    45    24    40    1
    46    25    41    1
