@<TRIPOS>MOLECULE
*****
 32 34 0 0 0
SMALL
GASTEIGER

@<TRIPOS>ATOM
      1 O           5.0489   -1.1215    1.6128 O.2     1  UNL1       -0.2451
      2 C           4.9795   -0.3430    0.6801 C.2     1  UNL1        0.3368
      3 O           6.0767    0.2418    0.1702 O.3     1  UNL1       -0.4771
      4 C           3.7331    0.0686   -0.0111 C.ar    1  UNL1        0.0591
      5 C           3.7396    0.9741   -1.0796 C.ar    1  UNL1       -0.0470
      6 C           2.5407    1.3266   -1.7066 C.ar    1  UNL1       -0.0467
      7 C           1.3287    0.7839   -1.2626 C.ar    1  UNL1        0.0623
      8 C           1.3143   -0.1145   -0.1875 C.ar    1  UNL1       -0.0288
      9 C           2.5193   -0.4787    0.4293 C.ar    1  UNL1       -0.0437
     10 C           0.0028   -0.7030    0.2482 C.3     1  UNL1        0.0147
     11 C          -1.0952    0.3344    0.0029 C.3     1  UNL1        0.1323
     12 C          -2.5111   -0.0962    0.3501 C.ar    1  UNL1       -0.0069
     13 C          -2.8303   -1.3483    0.8974 C.ar    1  UNL1       -0.0551
     14 C          -4.1528   -1.6763    1.2125 C.ar    1  UNL1       -0.0614
     15 C          -5.1766   -0.7600    0.9877 C.ar    1  UNL1       -0.0617
     16 C          -4.8813    0.4868    0.4461 C.ar    1  UNL1       -0.0614
     17 C          -3.5613    0.8155    0.1319 C.ar    1  UNL1       -0.0551
     18 O          -1.0872    0.7192   -1.3911 O.3     1  UNL1       -0.4528
     19 C           0.0674    1.1385   -1.9673 C.2     1  UNL1        0.3400
     20 O           0.0825    1.7533   -3.0246 O.2     1  UNL1       -0.2449
     21 H           6.8119   -0.1162    0.7111 H       1  UNL1        0.2954
     22 H           4.6718    1.4050   -1.4385 H       1  UNL1        0.0626
     23 H           2.5568    2.0192   -2.5469 H       1  UNL1        0.0626
     24 H           2.5178   -1.1895    1.2551 H       1  UNL1        0.0629
     25 H           0.0422   -0.9736    1.3097 H       1  UNL1        0.0353
     26 H          -0.1698   -1.6120   -0.3412 H       1  UNL1        0.0353
     27 H          -0.8847    1.2365    0.5964 H       1  UNL1        0.0789
     28 H          -2.0668   -2.0972    1.0887 H       1  UNL1        0.0621
     29 H          -4.3838   -2.6521    1.6326 H       1  UNL1        0.0618
     30 H          -6.2037   -1.0190    1.2305 H       1  UNL1        0.0618
     31 H          -5.6771    1.2040    0.2628 H       1  UNL1        0.0618
     32 H          -3.3523    1.7938   -0.2991 H       1  UNL1        0.0621
@<TRIPOS>BOND
     1     1     2    2
     2     2     3    1
     3     2     4    1
     4     4     5   ar
     5     5     6   ar
     6     6     7   ar
     7     7     8   ar
     8     8     9   ar
     9     8    10    1
    10    10    11    1
    11    11    12    1
    12    12    13   ar
    13    13    14   ar
    14    14    15   ar
    15    15    16   ar
    16    16    17   ar
    17    11    18    1
    18    18    19    1
    19    19    20    2
    20     9     4   ar
    21    17    12   ar
    22    19     7    1
    23     3    21    1
    24     5    22    1
    25     6    23    1
    26     9    24    1
    27    10    25    1
    28    10    26    1
    29    11    27    1
    30    13    28    1
    31    14    29    1
    32    15    30    1
    33    16    31    1
    34    17    32    1
