@<TRIPOS>MOLECULE
*****
 34 35 0 0 0
SMALL
GASTEIGER

@<TRIPOS>ATOM
      1 O          -1.5158    3.0591   -0.7202 O.2     1  UNL1       -0.2507
      2 C          -2.0386    2.0313   -0.3219 C.2     1  UNL1        0.3086
      3 O          -3.0716    2.0796    0.5366 O.3     1  UNL1       -0.4804
      4 C          -1.6267    0.6290   -0.7136 C.3     1  UNL1        0.0673
      5 C          -2.7859   -0.1109   -1.4059 C.3     1  UNL1       -0.0394
      6 C          -3.5700   -1.0050   -0.4488 C.3     1  UNL1       -0.0523
      7 C          -2.6883   -2.0518    0.2331 C.3     1  UNL1       -0.0523
      8 C          -1.2221   -1.6357    0.3519 C.3     1  UNL1       -0.0411
      9 C          -1.0748   -0.1190    0.5143 C.3     1  UNL1        0.0488
     10 C           0.3742    0.2813    0.7969 C.2     1  UNL1        0.2221
     11 O           0.6403    0.9181    1.8130 O.2     1  UNL1       -0.2751
     12 N           1.2743   -0.1131   -0.1611 N.am    1  UNL1       -0.2701
     13 C           2.6509    0.1093   -0.2035 C.ar    1  UNL1        0.1248
     14 C           3.3649    0.8092    0.7583 C.ar    1  UNL1       -0.0215
     15 C           4.7413    0.9610    0.5939 C.ar    1  UNL1       -0.0571
     16 C           5.3611    0.4124   -0.5202 C.ar    1  UNL1       -0.0435
     17 C           4.5726   -0.2694   -1.4287 C.ar    1  UNL1        0.0297
     18 N           3.2373   -0.4323   -1.2941 N.ar    1  UNL1       -0.2401
     19 H          -3.1895    3.0373    0.7130 H       1  UNL1        0.2951
     20 H          -0.8427    0.7637   -1.4708 H       1  UNL1        0.0421
     21 H          -2.3746   -0.7407   -2.2056 H       1  UNL1        0.0273
     22 H          -3.4688    0.5973   -1.8905 H       1  UNL1        0.0273
     23 H          -4.3834   -1.5068   -0.9857 H       1  UNL1        0.0265
     24 H          -4.0491   -0.3852    0.3185 H       1  UNL1        0.0265
     25 H          -3.0966   -2.2596    1.2297 H       1  UNL1        0.0265
     26 H          -2.7410   -2.9977   -0.3197 H       1  UNL1        0.0265
     27 H          -0.6914   -1.9742   -0.5471 H       1  UNL1        0.0273
     28 H          -0.7558   -2.1635    1.1927 H       1  UNL1        0.0273
     29 H          -1.6402    0.1640    1.4139 H       1  UNL1        0.0402
     30 H           0.9649   -0.6356   -0.9682 H       1  UNL1        0.1562
     31 H           2.8904    1.2437    1.6295 H       1  UNL1        0.0652
     32 H           5.3198    1.5068    1.3340 H       1  UNL1        0.0619
     33 H           6.4289    0.5149   -0.6762 H       1  UNL1        0.0633
     34 H           5.0060   -0.7174   -2.3184 H       1  UNL1        0.0830
@<TRIPOS>BOND
     1     1     2    2
     2     2     3    1
     3     2     4    1
     4     4     5    1
     5     5     6    1
     6     6     7    1
     7     7     8    1
     8     8     9    1
     9     9    10    1
    10    10    11    2
    11    10    12   am
    12    12    13    1
    13    13    14   ar
    14    14    15   ar
    15    15    16   ar
    16    16    17   ar
    17    17    18   ar
    18     9     4    1
    19    18    13   ar
    20     3    19    1
    21     4    20    1
    22     5    21    1
    23     5    22    1
    24     6    23    1
    25     6    24    1
    26     7    25    1
    27     7    26    1
    28     8    27    1
    29     8    28    1
    30     9    29    1
    31    12    30    1
    32    14    31    1
    33    15    32    1
    34    16    33    1
    35    17    34    1
