@<TRIPOS>MOLECULE
*****
 33 34 0 0 0
SMALL
GASTEIGER

@<TRIPOS>ATOM
      1 O          -1.7918    1.6008   -0.9862 O.2     1  UNL1       -0.2489
      2 C          -1.8079    1.2862    0.1933 C.2     1  UNL1        0.3256
      3 O          -1.7138    2.2398    1.1464 O.3     1  UNL1       -0.4793
      4 C          -1.9480   -0.1166    0.7891 C.3     1  UNL1        0.1259
      5 C          -3.3546   -0.3366    1.3480 C.3     1  UNL1       -0.0224
      6 C          -4.1155   -0.9322    0.1643 C.3     1  UNL1       -0.0348
      7 C          -3.0740   -1.8119   -0.5098 C.3     1  UNL1        0.0187
      8 N          -1.8170   -1.1536   -0.2319 N.am    1  UNL1       -0.2540
      9 C          -0.6384   -1.5451   -0.8064 C.2     1  UNL1        0.4039
     10 O          -0.5384   -2.4671   -1.6055 O.2     1  UNL1       -0.2262
     11 O           0.4001   -0.7842   -0.3806 O.3     1  UNL1       -0.4455
     12 C           1.6437   -1.0899   -1.0138 C.3     1  UNL1        0.1191
     13 C           2.6407   -0.0356   -0.6036 C.ar    1  UNL1       -0.0103
     14 C           3.7633   -0.3662    0.1670 C.ar    1  UNL1       -0.0554
     15 C           4.6803    0.6190    0.5385 C.ar    1  UNL1       -0.0614
     16 C           4.4838    1.9418    0.1447 C.ar    1  UNL1       -0.0617
     17 C           3.3696    2.2826   -0.6196 C.ar    1  UNL1       -0.0614
     18 C           2.4517    1.2997   -0.9916 C.ar    1  UNL1       -0.0554
     19 H          -1.6035    3.0691    0.6349 H       1  UNL1        0.2951
     20 H          -1.1704   -0.2492    1.5494 H       1  UNL1        0.0617
     21 H          -3.8310    0.5716    1.7288 H       1  UNL1        0.0289
     22 H          -3.3186   -1.0718    2.1614 H       1  UNL1        0.0289
     23 H          -5.0058   -1.4902    0.4667 H       1  UNL1        0.0281
     24 H          -4.4283   -0.1309   -0.5160 H       1  UNL1        0.0281
     25 H          -3.2315   -1.9151   -1.5875 H       1  UNL1        0.0466
     26 H          -3.0401   -2.8096   -0.0585 H       1  UNL1        0.0466
     27 H           1.5420   -1.0782   -2.1063 H       1  UNL1        0.0749
     28 H           1.9775   -2.0846   -0.6960 H       1  UNL1        0.0749
     29 H           3.9313   -1.3928    0.4845 H       1  UNL1        0.0621
     30 H           5.5489    0.3541    1.1358 H       1  UNL1        0.0618
     31 H           5.1991    2.7070    0.4342 H       1  UNL1        0.0618
     32 H           3.2148    3.3134   -0.9268 H       1  UNL1        0.0618
     33 H           1.5817    1.5761   -1.5851 H       1  UNL1        0.0621
@<TRIPOS>BOND
     1     1     2    2
     2     2     3    1
     3     2     4    1
     4     4     5    1
     5     5     6    1
     6     6     7    1
     7     7     8    1
     8     8     9   am
     9     9    10    2
    10     9    11    1
    11    11    12    1
    12    12    13    1
    13    13    14   ar
    14    14    15   ar
    15    15    16   ar
    16    16    17   ar
    17    17    18   ar
    18     8     4    1
    19    18    13   ar
    20     3    19    1
    21     4    20    1
    22     5    21    1
    23     5    22    1
    24     6    23    1
    25     6    24    1
    26     7    25    1
    27     7    26    1
    28    12    27    1
    29    12    28    1
    30    14    29    1
    31    15    30    1
    32    16    31    1
    33    17    32    1
    34    18    33    1
