@<TRIPOS>MOLECULE
*****
 38 39 0 0 0
SMALL
GASTEIGER

@<TRIPOS>ATOM
      1 O          -4.4258   -1.7883   -2.2188 O.2     1  UNL1       -0.2509
      2 C          -3.7173   -2.4260   -1.4581 C.2     1  UNL1        0.3067
      3 O          -3.9561   -3.7342   -1.2365 O.3     1  UNL1       -0.4806
      4 C          -2.4980   -1.9417   -0.7233 C.3     1  UNL1        0.0688
      5 C          -2.4860   -0.4108   -0.6567 C.3     1  UNL1        0.0976
      6 C          -3.5248    0.1103    0.3659 C.2     1  UNL1        0.2309
      7 O          -4.3742   -0.5838    0.9141 O.2     1  UNL1       -0.2741
      8 N          -3.4336    1.4578    0.6328 N.am    1  UNL1       -0.3128
      9 C          -2.5688    2.2993   -0.1626 C.3     1  UNL1        0.0244
     10 C          -1.1989    1.6475   -0.4718 C.3     1  UNL1        0.0155
     11 N          -1.1338    0.1655   -0.3542 N.3     1  UNL1       -0.2859
     12 C          -0.6252   -0.2285    0.9720 C.3     1  UNL1        0.0182
     13 C           0.8717   -0.1169    1.1320 C.2     1  UNL1       -0.0695
     14 C           1.7750    0.0837    0.1568 C.2     1  UNL1       -0.0573
     15 C           3.2237    0.1904    0.3780 C.ar    1  UNL1       -0.0253
     16 C           3.9004   -0.6031    1.3134 C.ar    1  UNL1       -0.0546
     17 C           5.2843   -0.4909    1.4729 C.ar    1  UNL1       -0.0612
     18 C           6.0069    0.4080    0.6913 C.ar    1  UNL1       -0.0617
     19 C           5.3479    1.1908   -0.2541 C.ar    1  UNL1       -0.0612
     20 C           3.9644    1.0779   -0.4136 C.ar    1  UNL1       -0.0546
     21 H          -4.7715   -3.9179   -1.7480 H       1  UNL1        0.2951
     22 H          -2.5063   -2.3844    0.2789 H       1  UNL1        0.0398
     23 H          -1.6228   -2.3106   -1.2701 H       1  UNL1        0.0398
     24 H          -2.7855   -0.0245   -1.6411 H       1  UNL1        0.0564
     25 H          -4.1711    1.8474    1.2068 H       1  UNL1        0.1488
     26 H          -3.1017    2.5047   -1.0980 H       1  UNL1        0.0474
     27 H          -2.4345    3.2455    0.3706 H       1  UNL1        0.0474
     28 H          -0.4316    2.1276    0.1486 H       1  UNL1        0.0442
     29 H          -0.9271    1.9135   -1.5014 H       1  UNL1        0.0442
     30 H          -0.8535   -1.2785    1.1828 H       1  UNL1        0.0470
     31 H          -1.1046    0.3555    1.7678 H       1  UNL1        0.0470
     32 H           1.2116   -0.2159    2.1609 H       1  UNL1        0.0585
     33 H           1.4483    0.1905   -0.8752 H       1  UNL1        0.0621
     34 H           3.3605   -1.3263    1.9192 H       1  UNL1        0.0623
     35 H           5.7973   -1.1111    2.2032 H       1  UNL1        0.0618
     36 H           7.0833    0.4936    0.8145 H       1  UNL1        0.0618
     37 H           5.9097    1.8880   -0.8699 H       1  UNL1        0.0618
     38 H           3.4676    1.6956   -1.1583 H       1  UNL1        0.0623
@<TRIPOS>BOND
     1     1     2    2
     2     2     3    1
     3     2     4    1
     4     4     5    1
     5     5     6    1
     6     6     7    2
     7     6     8   am
     8     8     9    1
     9     9    10    1
    10    10    11    1
    11    11    12    1
    12    12    13    1
    13    13    14    2
    14    14    15    1
    15    15    16   ar
    16    16    17   ar
    17    17    18   ar
    18    18    19   ar
    19    19    20   ar
    20    11     5    1
    21    20    15   ar
    22     3    21    1
    23     4    22    1
    24     4    23    1
    25     5    24    1
    26     8    25    1
    27     9    26    1
    28     9    27    1
    29    10    28    1
    30    10    29    1
    31    12    30    1
    32    12    31    1
    33    13    32    1
    34    14    33    1
    35    16    34    1
    36    17    35    1
    37    18    36    1
    38    19    37    1
    39    20    38    1
