@<TRIPOS>MOLECULE
*****
 31 31 0 0 0
SMALL
GASTEIGER

@<TRIPOS>ATOM
      1 O           5.9907   -0.5079    0.9606 O.2     1  UNL1       -0.2510
      2 C           5.1343   -0.2490    0.1308 C.2     1  UNL1        0.3047
      3 O           5.4750    0.0512   -1.1350 O.3     1  UNL1       -0.4806
      4 C           3.6496   -0.2633    0.3636 C.3     1  UNL1        0.0452
      5 C           3.0066    1.0744   -0.0002 C.3     1  UNL1       -0.0347
      6 C           1.5509    1.1718    0.4556 C.3     1  UNL1        0.0248
      7 C           0.5928    0.3008   -0.3462 C.2     1  UNL1        0.2172
      8 O           0.9606   -0.3638   -1.3069 O.2     1  UNL1       -0.2755
      9 N          -0.6952    0.3802    0.1527 N.am    1  UNL1       -0.2848
     10 C          -1.8665   -0.2727   -0.3094 C.ar    1  UNL1        0.0475
     11 C          -1.8497   -1.1419   -1.4080 C.ar    1  UNL1       -0.0386
     12 C          -3.0185   -1.7737   -1.8459 C.ar    1  UNL1       -0.0460
     13 C          -4.2204   -1.5435   -1.1880 C.ar    1  UNL1        0.0188
     14 BR         -5.7963   -2.3993   -1.7841 Br      1  UNL1       -0.0503
     15 C          -4.2696   -0.6859   -0.0937 C.ar    1  UNL1       -0.0320
     16 C          -3.0990   -0.0473    0.3522 C.ar    1  UNL1        0.0810
     17 C          -3.1662    0.8681    1.5251 C.2     1  UNL1        0.3386
     18 O          -2.2225    1.4771    2.0009 O.2     1  UNL1       -0.2451
     19 O          -4.3995    0.9812    2.0472 O.3     1  UNL1       -0.4771
     20 H           6.4525   -0.0126   -1.1431 H       1  UNL1        0.2951
     21 H           3.4863   -0.4781    1.4264 H       1  UNL1        0.0378
     22 H           3.2217   -1.0941   -0.2065 H       1  UNL1        0.0378
     23 H           3.5742    1.8845    0.4753 H       1  UNL1        0.0275
     24 H           3.0760    1.2422   -1.0819 H       1  UNL1        0.0275
     25 H           1.4700    0.9075    1.5166 H       1  UNL1        0.0358
     26 H           1.2179    2.2108    0.3418 H       1  UNL1        0.0358
     27 H          -0.8303    0.9925    0.9603 H       1  UNL1        0.1548
     28 H          -0.9362   -1.3542   -1.9559 H       1  UNL1        0.0637
     29 H          -2.9714   -2.4421   -2.7028 H       1  UNL1        0.0629
     30 H          -5.2183   -0.5163    0.4101 H       1  UNL1        0.0637
     31 H          -4.2997    1.6035    2.7985 H       1  UNL1        0.2954
@<TRIPOS>BOND
     1     1     2    2
     2     2     3    1
     3     2     4    1
     4     4     5    1
     5     5     6    1
     6     6     7    1
     7     7     8    2
     8     7     9   am
     9     9    10    1
    10    10    11   ar
    11    11    12   ar
    12    12    13   ar
    13    13    14    1
    14    13    15   ar
    15    15    16   ar
    16    16    17    1
    17    17    18    2
    18    17    19    1
    19    16    10   ar
    20     3    20    1
    21     4    21    1
    22     4    22    1
    23     5    23    1
    24     5    24    1
    25     6    25    1
    26     6    26    1
    27     9    27    1
    28    11    28    1
    29    12    29    1
    30    15    30    1
    31    19    31    1
