@<TRIPOS>MOLECULE
*****
 30 30 0 0 0
SMALL
GASTEIGER

@<TRIPOS>ATOM
      1 O           4.8955    0.9021   -1.5754 O.2     1  UNL1       -0.2510
      2 C           4.9630    0.4091   -0.4630 C.2     1  UNL1        0.3047
      3 O           6.1587    0.2034    0.1239 O.3     1  UNL1       -0.4806
      4 C           3.8252   -0.0360    0.4154 C.3     1  UNL1        0.0448
      5 C           2.4716    0.1983   -0.2523 C.3     1  UNL1       -0.0429
      6 C           1.3205   -0.2562    0.6459 C.3     1  UNL1       -0.0511
      7 C          -0.0334   -0.0208   -0.0241 C.3     1  UNL1       -0.0367
      8 C          -1.1857   -0.4752    0.8736 C.3     1  UNL1        0.0223
      9 N          -2.4718   -0.2526    0.2394 N.am    1  UNL1       -0.2422
     10 C          -3.0637   -1.1514   -0.5983 C.2     1  UNL1        0.2222
     11 O          -2.6364   -2.2529   -0.9094 O.2     1  UNL1       -0.2752
     12 C          -4.3502   -0.5721   -1.1059 C.3     1  UNL1        0.0328
     13 C          -4.4151    0.8123   -0.4884 C.3     1  UNL1        0.0328
     14 C          -3.1609    0.9210    0.3260 C.2     1  UNL1        0.2222
     15 O          -2.8319    1.9181    0.9509 O.2     1  UNL1       -0.2752
     16 H           6.8058    0.5284   -0.5369 H       1  UNL1        0.2951
     17 H           3.9547   -1.1028    0.6285 H       1  UNL1        0.0377
     18 H           3.8784    0.5255    1.3547 H       1  UNL1        0.0377
     19 H           2.4321   -0.3425   -1.2061 H       1  UNL1        0.0270
     20 H           2.3569    1.2634   -0.4899 H       1  UNL1        0.0270
     21 H           1.3593    0.2888    1.5969 H       1  UNL1        0.0266
     22 H           1.4348   -1.3219    0.8785 H       1  UNL1        0.0266
     23 H          -0.1485    1.0440   -0.2621 H       1  UNL1        0.0280
     24 H          -0.0733   -0.5613   -0.9780 H       1  UNL1        0.0280
     25 H          -1.1623    0.0770    1.8200 H       1  UNL1        0.0469
     26 H          -1.0864   -1.5435    1.0972 H       1  UNL1        0.0469
     27 H          -5.1907   -1.1937   -0.7839 H       1  UNL1        0.0363
     28 H          -4.3289   -0.5202   -2.1983 H       1  UNL1        0.0363
     29 H          -5.2898    0.9210    0.1592 H       1  UNL1        0.0363
     30 H          -4.4278    1.5908   -1.2568 H       1  UNL1        0.0363
@<TRIPOS>BOND
     1     1     2    2
     2     2     3    1
     3     2     4    1
     4     4     5    1
     5     5     6    1
     6     6     7    1
     7     7     8    1
     8     8     9    1
     9     9    10   am
    10    10    11    2
    11    10    12    1
    12    12    13    1
    13    13    14    1
    14    14    15    2
    15    14     9   am
    16     3    16    1
    17     4    17    1
    18     4    18    1
    19     5    19    1
    20     5    20    1
    21     6    21    1
    22     6    22    1
    23     7    23    1
    24     7    24    1
    25     8    25    1
    26     8    26    1
    27    12    27    1
    28    12    28    1
    29    13    29    1
    30    13    30    1
