@<TRIPOS>MOLECULE
*****
 38 40 0 0 0
SMALL
GASTEIGER

@<TRIPOS>ATOM
      1 O           5.7544    0.8942    1.4108 O.2     1  UNL1       -0.2510
      2 C           5.3005   -0.1461    0.9661 C.2     1  UNL1        0.3055
      3 O           5.3907   -1.2875    1.6765 O.3     1  UNL1       -0.4806
      4 C           4.6603   -0.3602   -0.3761 C.3     1  UNL1        0.0542
      5 C           4.0338    0.9160   -0.9252 C.3     1  UNL1        0.0112
      6 S           2.5180    1.4149   -0.0390 S.3     1  UNL1       -0.0851
      7 C           1.3540    0.2811   -0.6569 C.ar    1  UNL1        0.1964
      8 N           1.6140   -0.5770   -1.6151 N.ar    1  UNL1       -0.1218
      9 N           0.4475   -1.1970   -1.9523 N.ar    1  UNL1       -0.1279
     10 C          -0.5173   -0.7392   -1.1731 C.ar    1  UNL1        0.1694
     11 C          -1.8797   -1.2781   -1.1792 C.ar    1  UNL1        0.0196
     12 C          -2.5493   -1.4375   -2.4007 C.ar    1  UNL1       -0.0510
     13 C          -3.8450   -1.9571   -2.4394 C.ar    1  UNL1       -0.0611
     14 C          -4.4794   -2.3349   -1.2579 C.ar    1  UNL1       -0.0617
     15 C          -3.8165   -2.2032   -0.0392 C.ar    1  UNL1       -0.0611
     16 C          -2.5198   -1.6846    0.0003 C.ar    1  UNL1       -0.0510
     17 N           0.0034    0.2536   -0.3365 N.ar    1  UNL1       -0.2703
     18 C          -0.7109    1.0658    0.5913 C.ar    1  UNL1        0.0505
     19 C          -0.1653    1.3669    1.8458 C.ar    1  UNL1       -0.0377
     20 C          -0.8806    2.1558    2.7501 C.ar    1  UNL1       -0.0598
     21 C          -2.1395    2.6465    2.4102 C.ar    1  UNL1       -0.0616
     22 C          -2.6886    2.3491    1.1651 C.ar    1  UNL1       -0.0598
     23 C          -1.9797    1.5609    0.2559 C.ar    1  UNL1       -0.0377
     24 H           5.8452   -1.0206    2.5029 H       1  UNL1        0.2951
     25 H           5.4527   -0.6954   -1.0551 H       1  UNL1        0.0386
     26 H           3.9216   -1.1654   -0.3042 H       1  UNL1        0.0386
     27 H           4.7406    1.7498   -0.8513 H       1  UNL1        0.0386
     28 H           3.8051    0.7965   -1.9897 H       1  UNL1        0.0386
     29 H          -2.0589   -1.1591   -3.3321 H       1  UNL1        0.0625
     30 H          -4.3541   -2.0737   -3.3928 H       1  UNL1        0.0618
     31 H          -5.4863   -2.7435   -1.2882 H       1  UNL1        0.0618
     32 H          -4.3057   -2.5115    0.8815 H       1  UNL1        0.0618
     33 H          -2.0161   -1.6095    0.9615 H       1  UNL1        0.0625
     34 H           0.7948    0.9703    2.1662 H       1  UNL1        0.0638
     35 H          -0.4554    2.3834    3.7249 H       1  UNL1        0.0618
     36 H          -2.6923    3.2615    3.1159 H       1  UNL1        0.0618
     37 H          -3.6685    2.7373    0.8974 H       1  UNL1        0.0618
     38 H          -2.4275    1.3775   -0.7184 H       1  UNL1        0.0638
@<TRIPOS>BOND
     1     1     2    2
     2     2     3    1
     3     2     4    1
     4     4     5    1
     5     5     6    1
     6     6     7    1
     7     7     8   ar
     8     8     9   ar
     9     9    10   ar
    10    10    11    1
    11    11    12   ar
    12    12    13   ar
    13    13    14   ar
    14    14    15   ar
    15    15    16   ar
    16    10    17   ar
    17    17    18    1
    18    18    19   ar
    19    19    20   ar
    20    20    21   ar
    21    21    22   ar
    22    22    23   ar
    23    17     7   ar
    24    23    18   ar
    25    16    11   ar
    26     3    24    1
    27     4    25    1
    28     4    26    1
    29     5    27    1
    30     5    28    1
    31    12    29    1
    32    13    30    1
    33    14    31    1
    34    15    32    1
    35    16    33    1
    36    19    34    1
    37    20    35    1
    38    21    36    1
    39    22    37    1
    40    23    38    1
