@<TRIPOS>MOLECULE
*****
 37 38 0 0 0
SMALL
GASTEIGER

@<TRIPOS>ATOM
      1 O           5.1612   -1.5414    0.7736 O.2     1  UNL1       -0.2495
      2 C           5.3096   -0.3286    0.8163 C.2     1  UNL1        0.3204
      3 O           6.3438    0.2145    1.4868 O.3     1  UNL1       -0.4797
      4 C           4.4388    0.6983    0.1289 C.3     1  UNL1        0.1144
      5 N           3.1622    0.0555   -0.2896 N.3     1  UNL1       -0.1792
      6 S           2.4160    0.8403   -1.5859 S.O2    1  UNL1        0.0595
      7 O           2.3672    2.2562   -1.2997 O.2     1  UNL1       -0.1530
      8 C           0.7640    0.1806   -1.5378 C.ar    1  UNL1        0.1130
      9 C          -0.1046    0.4037   -0.4285 C.ar    1  UNL1        0.0102
     10 C           0.2331    1.1531    0.7260 C.ar    1  UNL1       -0.0520
     11 C          -0.6594    1.3358    1.7804 C.ar    1  UNL1       -0.0594
     12 C          -1.9257    0.7737    1.7191 C.ar    1  UNL1       -0.0401
     13 C          -2.3195    0.0173    0.6054 C.ar    1  UNL1        0.0371
     14 N          -3.6264   -0.5411    0.5280 N.pl3   1  UNL1       -0.3355
     15 C          -3.9889   -1.3567    1.6881 C.3     1  UNL1        0.0004
     16 C          -4.6130    0.4840    0.1753 C.3     1  UNL1        0.0004
     17 C          -1.4075   -0.1680   -0.4772 C.ar    1  UNL1        0.0050
     18 C          -1.7740   -0.9249   -1.6127 C.ar    1  UNL1       -0.0521
     19 C          -0.9107   -1.1237   -2.6865 C.ar    1  UNL1       -0.0593
     20 C           0.3583   -0.5700   -2.6518 C.ar    1  UNL1       -0.0347
     21 O           3.0937    0.3371   -2.7620 O.2     1  UNL1       -0.1530
     22 H           6.8207   -0.5550    1.8645 H       1  UNL1        0.2951
     23 H           4.9959    1.0687   -0.7372 H       1  UNL1        0.0556
     24 H           4.2126    1.5119    0.8237 H       1  UNL1        0.0556
     25 H           3.3384   -0.9233   -0.5474 H       1  UNL1        0.1486
     26 H           1.2087    1.6221    0.8293 H       1  UNL1        0.0624
     27 H          -0.3647    1.9242    2.6452 H       1  UNL1        0.0618
     28 H          -2.6118    0.9442    2.5432 H       1  UNL1        0.0636
     29 H          -4.1840   -0.7504    2.5794 H       1  UNL1        0.0428
     30 H          -3.2046   -2.0875    1.9162 H       1  UNL1        0.0428
     31 H          -4.9005   -1.9220    1.4649 H       1  UNL1        0.0428
     32 H          -4.7393    1.2221    0.9759 H       1  UNL1        0.0428
     33 H          -5.5854    0.0133   -0.0066 H       1  UNL1        0.0428
     34 H          -4.3303    1.0058   -0.7464 H       1  UNL1        0.0428
     35 H          -2.7648   -1.3755   -1.6608 H       1  UNL1        0.0624
     36 H          -1.2337   -1.7097   -3.5428 H       1  UNL1        0.0618
     37 H           1.0242   -0.7285   -3.4976 H       1  UNL1        0.0637
@<TRIPOS>BOND
     1     1     2    2
     2     2     3    1
     3     2     4    1
     4     4     5    1
     5     5     6    1
     6     6     7    2
     7     6     8    1
     8     8     9   ar
     9     9    10   ar
    10    10    11   ar
    11    11    12   ar
    12    12    13   ar
    13    13    14    1
    14    14    15    1
    15    14    16    1
    16    13    17   ar
    17    17    18   ar
    18    18    19   ar
    19    19    20   ar
    20     6    21    2
    21    20     8   ar
    22    17     9   ar
    23     3    22    1
    24     4    23    1
    25     4    24    1
    26     5    25    1
    27    10    26    1
    28    11    27    1
    29    12    28    1
    30    15    29    1
    31    15    30    1
    32    15    31    1
    33    16    32    1
    34    16    33    1
    35    16    34    1
    36    18    35    1
    37    19    36    1
    38    20    37    1
