@<TRIPOS>MOLECULE
*****
 29 30 0 0 0
SMALL
GASTEIGER

@<TRIPOS>ATOM
      1 O          -5.0101    2.1110    0.2877 O.2     1  UNL1       -0.2501
      2 C          -4.3870    1.3610   -0.4457 C.2     1  UNL1        0.3147
      3 O          -4.7895    1.1846   -1.7229 O.3     1  UNL1       -0.4800
      4 C          -3.1032    0.6198   -0.1437 C.3     1  UNL1        0.0916
      5 S          -3.0681    0.0533    1.5951 S.3     1  UNL1       -0.1363
      6 C          -1.2787   -0.1241    1.8767 C.3     1  UNL1        0.0910
      7 C          -0.5851    1.2000    2.0917 C.3     1  UNL1        0.0451
      8 C           0.7726    0.9648    1.5018 C.2     1  UNL1        0.2277
      9 O           1.7169    1.6956    1.7651 O.2     1  UNL1       -0.2748
     10 N           0.7254   -0.1338    0.6682 N.am    1  UNL1       -0.2094
     11 C           1.8025   -0.5630   -0.1748 C.ar    1  UNL1        0.0453
     12 C           1.8112   -1.8437   -0.7571 C.ar    1  UNL1       -0.0398
     13 C           2.8619   -2.2744   -1.5775 C.ar    1  UNL1       -0.0586
     14 C           3.9310   -1.4283   -1.8414 C.ar    1  UNL1       -0.0433
     15 C           3.9444   -0.1580   -1.2785 C.ar    1  UNL1        0.0427
     16 CL          5.2672    0.8979   -1.6000 Cl      1  UNL1       -0.0835
     17 C           2.8978    0.2715   -0.4543 C.ar    1  UNL1       -0.0215
     18 C          -0.5064   -0.7601    0.7474 C.2     1  UNL1        0.2396
     19 O          -0.9463   -1.6649    0.0498 O.2     1  UNL1       -0.2736
     20 H          -5.6106    1.7179   -1.7887 H       1  UNL1        0.2951
     21 H          -2.2734    1.2981   -0.3583 H       1  UNL1        0.0491
     22 H          -3.0380   -0.2593   -0.7921 H       1  UNL1        0.0491
     23 H          -1.1441   -0.7636    2.7582 H       1  UNL1        0.0512
     24 H          -1.0449    2.0421    1.5633 H       1  UNL1        0.0374
     25 H          -0.5013    1.4378    3.1567 H       1  UNL1        0.0374
     26 H           1.0117   -2.5606   -0.5824 H       1  UNL1        0.0636
     27 H           2.8388   -3.2753   -2.0036 H       1  UNL1        0.0619
     28 H           4.7453   -1.7622   -2.4786 H       1  UNL1        0.0632
     29 H           2.9600    1.2823   -0.0622 H       1  UNL1        0.0651
@<TRIPOS>BOND
     1     1     2    2
     2     2     3    1
     3     2     4    1
     4     4     5    1
     5     5     6    1
     6     6     7    1
     7     7     8    1
     8     8     9    2
     9     8    10   am
    10    10    11    1
    11    11    12   ar
    12    12    13   ar
    13    13    14   ar
    14    14    15   ar
    15    15    16    1
    16    15    17   ar
    17    10    18   am
    18    18    19    2
    19    18     6    1
    20    17    11   ar
    21     3    20    1
    22     4    21    1
    23     4    22    1
    24     6    23    1
    25     7    24    1
    26     7    25    1
    27    12    26    1
    28    13    27    1
    29    14    28    1
    30    17    29    1
