@<TRIPOS>MOLECULE
*****
 36 38 0 0 0
SMALL
GASTEIGER

@<TRIPOS>ATOM
      1 O          -1.8634    1.7489    1.6704 O.2     1  UNL1       -0.2449
      2 C          -1.2731    1.6112    0.6138 C.2     1  UNL1        0.3408
      3 O          -1.1994    2.5005   -0.4084 O.3     1  UNL1       -0.4644
      4 C          -1.9273    3.7047   -0.1711 C.3     1  UNL1        0.0820
      5 C          -0.4641    0.4410    0.2506 C.ar    1  UNL1        0.0817
      6 C           0.9187    0.5607    0.4883 C.ar    1  UNL1       -0.0249
      7 C           1.7876   -0.4995    0.2265 C.ar    1  UNL1        0.0306
      8 N           3.1723   -0.3787    0.4521 N.pl3   1  UNL1       -0.3298
      9 C           4.1055   -1.4417    0.7016 C.3     1  UNL1        0.0136
     10 C           5.0766   -0.3605    1.1858 C.3     1  UNL1       -0.0214
     11 C           3.8257    0.5021    1.3801 C.3     1  UNL1        0.0136
     12 C           1.2399   -1.6758   -0.2894 C.ar    1  UNL1       -0.0389
     13 C          -0.1382   -1.7946   -0.5214 C.ar    1  UNL1       -0.0381
     14 C          -1.0278   -0.7372   -0.2669 C.ar    1  UNL1        0.0439
     15 N          -2.4068   -0.9262   -0.5156 N.pl3   1  UNL1       -0.3292
     16 C          -3.4102    0.0553   -0.8194 C.3     1  UNL1        0.0136
     17 C          -4.3048   -1.1083   -1.2536 C.3     1  UNL1       -0.0214
     18 C          -3.0031   -1.8983   -1.3919 C.3     1  UNL1        0.0136
     19 H          -2.9917    3.4893   -0.0338 H       1  UNL1        0.0661
     20 H          -1.5229    4.2320    0.6986 H       1  UNL1        0.0661
     21 H          -1.8151    4.3474   -1.0486 H       1  UNL1        0.0661
     22 H           1.3069    1.4954    0.8847 H       1  UNL1        0.0645
     23 H           3.7623   -2.1363    1.4755 H       1  UNL1        0.0464
     24 H           4.4076   -1.9797   -0.1997 H       1  UNL1        0.0464
     25 H           5.6379   -0.5964    2.0932 H       1  UNL1        0.0295
     26 H           5.7633    0.0073    0.4152 H       1  UNL1        0.0295
     27 H           3.9019    1.5326    1.0262 H       1  UNL1        0.0464
     28 H           3.3878    0.4639    2.3831 H       1  UNL1        0.0464
     29 H           1.8803   -2.5233   -0.5193 H       1  UNL1        0.0637
     30 H          -0.5086   -2.7410   -0.9076 H       1  UNL1        0.0637
     31 H          -3.1135    0.7320   -1.6270 H       1  UNL1        0.0464
     32 H          -3.7750    0.6087    0.0477 H       1  UNL1        0.0464
     33 H          -4.8700   -0.9557   -2.1762 H       1  UNL1        0.0295
     34 H          -4.9757   -1.4783   -0.4702 H       1  UNL1        0.0295
     35 H          -2.5633   -1.8922   -2.3947 H       1  UNL1        0.0464
     36 H          -3.0204   -2.9094   -0.9787 H       1  UNL1        0.0464
@<TRIPOS>BOND
     1     1     2    2
     2     2     3    1
     3     3     4    1
     4     2     5    1
     5     5     6   ar
     6     6     7   ar
     7     7     8    1
     8     8     9    1
     9     9    10    1
    10    10    11    1
    11     7    12   ar
    12    12    13   ar
    13    13    14   ar
    14    14    15    1
    15    15    16    1
    16    16    17    1
    17    17    18    1
    18    14     5   ar
    19    11     8    1
    20    18    15    1
    21     4    19    1
    22     4    20    1
    23     4    21    1
    24     6    22    1
    25     9    23    1
    26     9    24    1
    27    10    25    1
    28    10    26    1
    29    11    27    1
    30    11    28    1
    31    12    29    1
    32    13    30    1
    33    16    31    1
    34    16    32    1
    35    17    33    1
    36    17    34    1
    37    18    35    1
    38    18    36    1
