@<TRIPOS>MOLECULE
*****
 49 56 0 0 0
SMALL
GASTEIGER

@<TRIPOS>ATOM
      1 SI          7.1362   -0.4501   -2.2824 Si      1  UNL1        0.0000
      2 C           8.5129    0.5409   -1.4541 C.2     1  UNL1        0.0000
      3 C           8.0994    1.1253   -0.3132 C.2     1  UNL1        0.0000
      4 C           6.6900    0.8525    0.0071 C.ar    1  UNL1        0.0000
      5 N           6.1373    1.3668    1.1112 N.ar    1  UNL1        0.0000
      6 C           4.8363    1.0816    1.3555 C.ar    1  UNL1        0.0000
      7 C           4.0749    0.2737    0.4862 C.ar    1  UNL1        0.0000
      8 C           2.7371   -0.1583    0.5159 C.ar    1  UNL1        0.0000
      9 SI          1.2554    0.0741    1.6680 Si      1  UNL1        0.0000
     10 C           0.2499   -1.0093    0.4471 C.2     1  UNL1        0.0000
     11 C           0.9900   -1.4470   -0.5964 C.2     1  UNL1        0.0000
     12 C           2.3250   -0.9564   -0.5264 C.ar    1  UNL1        0.0000
     13 S           3.5893   -1.2190   -1.6116 S.2     1  UNL1        0.0000
     14 C           4.6909   -0.2516   -0.6704 C.ar    1  UNL1        0.0000
     15 C           6.0274    0.0441   -0.9144 C.ar    1  UNL1        0.0000
     16 C          -1.1027   -1.3490    0.6848 C.ar    1  UNL1        0.0000
     17 S          -1.3552   -2.7883    1.6194 S.2     1  UNL1        0.0000
     18 C          -3.0442   -2.6078    1.6032 C.ar    1  UNL1        0.0000
     19 C          -3.4426   -1.4995    0.8949 C.ar    1  UNL1        0.0000
     20 C          -2.3209   -0.7692    0.3287 C.ar    1  UNL1        0.0000
     21 C          -2.4984    0.4146   -0.4724 C.ar    1  UNL1        0.0000
     22 C          -1.4721    1.1777   -1.0989 C.ar    1  UNL1        0.0000
     23 C          -1.7587    2.3154   -1.8440 C.ar    1  UNL1        0.0000
     24 C          -3.0719    2.7162   -1.9868 C.ar    1  UNL1        0.0000
     25 C          -4.0981    1.9737   -1.3918 C.ar    1  UNL1        0.0000
     26 C          -3.8799    0.8020   -0.6215 C.ar    1  UNL1        0.0000
     27 C          -5.0012    0.0487   -0.0293 C.ar    1  UNL1        0.0000
     28 C          -6.3606    0.4318   -0.1825 C.ar    1  UNL1        0.0000
     29 C          -7.4359   -0.2788    0.3708 C.ar    1  UNL1        0.0000
     30 C          -7.2071   -1.4228    1.1146 C.ar    1  UNL1        0.0000
     31 C          -5.9024   -1.8555    1.3060 C.ar    1  UNL1        0.0000
     32 C          -4.8081   -1.1372    0.7471 C.ar    1  UNL1        0.0000
     33 H           7.4629   -1.8975   -2.3084 H       1  UNL1        0.0000
     34 H           6.7760    0.1353   -3.5978 H       1  UNL1        0.0000
     35 H           9.4989    0.5981   -1.8882 H       1  UNL1        0.0000
     36 H           8.7019    1.7419    0.3380 H       1  UNL1        0.0000
     37 H           4.4250    1.5161    2.2606 H       1  UNL1        0.0000
     38 H           1.4447   -0.5737    2.9907 H       1  UNL1        0.0000
     39 H           0.7777    1.4794    1.7017 H       1  UNL1        0.0000
     40 H           0.6315   -2.0899   -1.3912 H       1  UNL1        0.0000
     41 H          -3.6418   -3.3418    2.1231 H       1  UNL1        0.0000
     42 H          -0.4306    0.8961   -1.0337 H       1  UNL1        0.0000
     43 H          -0.9569    2.8800   -2.3119 H       1  UNL1        0.0000
     44 H          -3.3117    3.6039   -2.5665 H       1  UNL1        0.0000
     45 H          -5.1014    2.3542   -1.5599 H       1  UNL1        0.0000
     46 H          -6.6313    1.3160   -0.7523 H       1  UNL1        0.0000
     47 H          -8.4527    0.0726    0.2123 H       1  UNL1        0.0000
     48 H          -8.0381   -1.9753    1.5437 H       1  UNL1        0.0000
     49 H          -5.7458   -2.7546    1.8938 H       1  UNL1        0.0000
@<TRIPOS>BOND
     1     1     2    1
     2     2     3    2
     3     3     4    1
     4     4     5   ar
     5     5     6   ar
     6     6     7   ar
     7     7     8   ar
     8     8     9    1
     9     9    10    1
    10    10    11    2
    11    11    12    1
    12    12    13   ar
    13    13    14   ar
    14    14    15   ar
    15    10    16    1
    16    16    17   ar
    17    17    18   ar
    18    18    19   ar
    19    19    20   ar
    20    20    21   ar
    21    21    22   ar
    22    22    23   ar
    23    23    24   ar
    24    24    25   ar
    25    25    26   ar
    26    26    27   ar
    27    27    28   ar
    28    28    29   ar
    29    29    30   ar
    30    30    31   ar
    31    31    32   ar
    32    15     1    1
    33    20    16   ar
    34    26    21   ar
    35    32    27   ar
    36    15     4   ar
    37    32    19   ar
    38    14     7   ar
    39    12     8   ar
    40     1    33    1
    41     1    34    1
    42     2    35    1
    43     3    36    1
    44     6    37    1
    45     9    38    1
    46     9    39    1
    47    11    40    1
    48    18    41    1
    49    22    42    1
    50    23    43    1
    51    24    44    1
    52    25    45    1
    53    28    46    1
    54    29    47    1
    55    30    48    1
    56    31    49    1
