@<TRIPOS>MOLECULE
*****
 37 39 0 0 0
SMALL
GASTEIGER

@<TRIPOS>ATOM
      1 O          -5.4000    1.2035   -1.5415 O.2     1  UNL1       -0.2450
      2 C          -5.1883    0.5756   -0.5142 C.2     1  UNL1        0.3391
      3 O          -6.1454    0.1294    0.3414 O.3     1  UNL1       -0.4644
      4 C          -7.4773    0.4596   -0.0555 C.3     1  UNL1        0.0820
      5 C          -3.8304    0.1903   -0.0252 C.ar    1  UNL1        0.0638
      6 C          -2.7777    0.5825   -0.7772 C.ar    1  UNL1       -0.0048
      7 C          -1.4496    0.2554   -0.3787 C.ar    1  UNL1        0.1404
      8 N          -0.2938    0.5378   -0.9368 N.ar    1  UNL1       -0.2258
      9 C           0.6597   -0.0093   -0.1061 C.ar    1  UNL1        0.1113
     10 C           2.0816    0.1087   -0.3821 C.ar    1  UNL1        0.0040
     11 C           3.0161    0.3084    0.6416 C.ar    1  UNL1       -0.0490
     12 C           4.3822    0.4247    0.3523 C.ar    1  UNL1       -0.0193
     13 C           4.8286    0.3503   -0.9671 C.ar    1  UNL1        0.1201
     14 C           3.8978    0.1660   -1.9916 C.ar    1  UNL1       -0.0193
     15 C           2.5343    0.0526   -1.7044 C.ar    1  UNL1       -0.0490
     16 O           6.1273    0.4459   -1.3843 O.3     1  UNL1       -0.4951
     17 C           7.1091    0.6778   -0.3824 C.3     1  UNL1        0.0788
     18 C           0.0727   -0.6946    0.9497 C.ar    1  UNL1        0.1285
     19 N          -1.2891   -0.4828    0.7908 N.ar    1  UNL1       -0.2877
     20 C          -2.3663   -0.8893    1.5811 C.ar    1  UNL1        0.0137
     21 C          -3.6183   -0.5730    1.2072 C.ar    1  UNL1       -0.0310
     22 N           0.5915   -1.4495    1.9587 N.pl3   1  UNL1       -0.3425
     23 H          -8.1633    0.0585    0.6957 H       1  UNL1        0.0661
     24 H          -7.6069    1.5456   -0.0979 H       1  UNL1        0.0661
     25 H          -7.7146    0.0014   -1.0207 H       1  UNL1        0.0661
     26 H          -2.8988    1.1518   -1.6939 H       1  UNL1        0.0662
     27 H           2.6879    0.3978    1.6749 H       1  UNL1        0.0625
     28 H           5.0656    0.5810    1.1799 H       1  UNL1        0.0654
     29 H           4.2338    0.1168   -3.0244 H       1  UNL1        0.0654
     30 H           1.8249   -0.0791   -2.5190 H       1  UNL1        0.0625
     31 H           6.9326    1.6285    0.1316 H       1  UNL1        0.0660
     32 H           8.0829    0.7430   -0.8773 H       1  UNL1        0.0660
     33 H           7.1519   -0.1545    0.3279 H       1  UNL1        0.0660
     34 H          -2.1467   -1.4437    2.4832 H       1  UNL1        0.0814
     35 H          -4.4716   -0.8722    1.8073 H       1  UNL1        0.0640
     36 H           1.5452   -1.7914    1.8402 H       1  UNL1        0.1437
     37 H           0.0123   -2.1483    2.4169 H       1  UNL1        0.1437
@<TRIPOS>BOND
     1     1     2    2
     2     2     3    1
     3     3     4    1
     4     2     5    1
     5     5     6   ar
     6     6     7   ar
     7     7     8   ar
     8     8     9   ar
     9     9    10    1
    10    10    11   ar
    11    11    12   ar
    12    12    13   ar
    13    13    14   ar
    14    14    15   ar
    15    13    16    1
    16    16    17    1
    17     9    18   ar
    18    18    19   ar
    19    19    20   ar
    20    20    21   ar
    21    18    22    1
    22    21     5   ar
    23    19     7   ar
    24    15    10   ar
    25     4    23    1
    26     4    24    1
    27     4    25    1
    28     6    26    1
    29    11    27    1
    30    12    28    1
    31    14    29    1
    32    15    30    1
    33    17    31    1
    34    17    32    1
    35    17    33    1
    36    20    34    1
    37    21    35    1
    38    22    36    1
    39    22    37    1
