@<TRIPOS>MOLECULE
*****
 35 37 0 0 0
SMALL
GASTEIGER

@<TRIPOS>ATOM
      1 O           6.2236   -0.5760    0.5084 O.2     1  UNL1       -0.2450
      2 C           5.2420    0.1074    0.2493 C.2     1  UNL1        0.3391
      3 O           5.2751    1.4060   -0.1448 O.3     1  UNL1       -0.4644
      4 C           6.5911    1.9524   -0.2433 C.3     1  UNL1        0.0820
      5 C           3.8413   -0.4111    0.3350 C.ar    1  UNL1        0.0638
      6 C           2.7806    0.3758    0.0402 C.ar    1  UNL1       -0.0048
      7 C           1.4567   -0.1429    0.1299 C.ar    1  UNL1        0.1390
      8 N           0.2888    0.4163   -0.1011 N.ar    1  UNL1       -0.2278
      9 C          -0.6518   -0.5628    0.1488 C.ar    1  UNL1        0.0898
     10 C          -2.0838   -0.3386    0.0064 C.ar    1  UNL1        0.0021
     11 C          -3.0286   -1.3393    0.2626 C.ar    1  UNL1       -0.0491
     12 C          -4.3963   -1.0810    0.1131 C.ar    1  UNL1       -0.0193
     13 C          -4.8473    0.1759   -0.2935 C.ar    1  UNL1        0.1201
     14 C          -3.9154    1.1788   -0.5510 C.ar    1  UNL1       -0.0193
     15 C          -2.5462    0.9208   -0.4015 C.ar    1  UNL1       -0.0491
     16 O          -6.2056    0.2907   -0.3987 O.3     1  UNL1       -0.4951
     17 C          -6.7120    1.5543   -0.8101 C.3     1  UNL1        0.0788
     18 C          -0.0334   -1.7337    0.5377 C.ar    1  UNL1        0.0371
     19 N           1.3114   -1.4655    0.5255 N.ar    1  UNL1       -0.3059
     20 C           2.3840   -2.2948    0.8339 C.ar    1  UNL1        0.0120
     21 C           3.6328   -1.8051    0.7492 C.ar    1  UNL1       -0.0311
     22 H           6.5021    2.9936   -0.5653 H       1  UNL1        0.0661
     23 H           7.1775    1.4078   -0.9900 H       1  UNL1        0.0661
     24 H           7.0884    1.9326    0.7315 H       1  UNL1        0.0661
     25 H           2.8823    1.4099   -0.2698 H       1  UNL1        0.0662
     26 H          -2.7263   -2.3323    0.5810 H       1  UNL1        0.0625
     27 H          -5.1170   -1.8695    0.3162 H       1  UNL1        0.0654
     28 H          -4.2120    2.1722   -0.8692 H       1  UNL1        0.0654
     29 H          -1.8345    1.7190   -0.6080 H       1  UNL1        0.0625
     30 H          -6.4530    2.3372   -0.0896 H       1  UNL1        0.0660
     31 H          -6.3637    1.8108   -1.8161 H       1  UNL1        0.0660
     32 H          -7.8033    1.4819   -0.8445 H       1  UNL1        0.0660
     33 H          -0.4112   -2.7063    0.8147 H       1  UNL1        0.0835
     34 H           2.1640   -3.3119    1.1326 H       1  UNL1        0.0813
     35 H           4.4998   -2.4177    0.9808 H       1  UNL1        0.0640
@<TRIPOS>BOND
     1     1     2    2
     2     2     3    1
     3     3     4    1
     4     2     5    1
     5     5     6   ar
     6     6     7   ar
     7     7     8   ar
     8     8     9   ar
     9     9    10    1
    10    10    11   ar
    11    11    12   ar
    12    12    13   ar
    13    13    14   ar
    14    14    15   ar
    15    13    16    1
    16    16    17    1
    17     9    18   ar
    18    18    19   ar
    19    19    20   ar
    20    20    21   ar
    21    21     5   ar
    22    19     7   ar
    23    15    10   ar
    24     4    22    1
    25     4    23    1
    26     4    24    1
    27     6    25    1
    28    11    26    1
    29    12    27    1
    30    14    28    1
    31    15    29    1
    32    17    30    1
    33    17    31    1
    34    17    32    1
    35    18    33    1
    36    20    34    1
    37    21    35    1
