@<TRIPOS>MOLECULE
*****
 27 29 0 0 0
SMALL
GASTEIGER

@<TRIPOS>ATOM
      1 O           0.6567    1.2758   -1.6278 O.2     1  UNL1       -0.2439
      2 C           1.1072    0.6784   -0.6569 C.2     1  UNL1        0.3511
      3 O           0.4063    0.4333    0.5260 O.3     1  UNL1       -0.4213
      4 C          -0.9206    0.8803    0.4921 C.ar    1  UNL1        0.1412
      5 C          -1.1657    2.1957    0.9002 C.ar    1  UNL1       -0.0186
      6 C          -2.4681    2.6890    0.8810 C.ar    1  UNL1       -0.0582
      7 C          -3.5158    1.8696    0.4631 C.ar    1  UNL1       -0.0609
      8 C          -3.2657    0.5492    0.0753 C.ar    1  UNL1       -0.0490
      9 C          -1.9638    0.0263    0.1006 C.ar    1  UNL1        0.0450
     10 C          -1.7603   -1.3631   -0.2845 C.ar    1  UNL1        0.1053
     11 C          -0.9038   -2.2377    0.3627 C.ar    1  UNL1        0.0238
     12 S          -1.0217   -3.7528   -0.4331 S.2     1  UNL1        0.0288
     13 N          -2.1690   -3.2015   -1.5159 N.ar    1  UNL1       -0.1100
     14 N          -2.4825   -1.9302   -1.3297 N.ar    1  UNL1       -0.1411
     15 C           2.4403    0.1115   -0.5385 C.ar    1  UNL1        0.0966
     16 C           3.0358   -0.5368    0.5309 C.ar    1  UNL1       -0.0406
     17 C           4.3694   -0.9537    0.2460 C.ar    1  UNL1       -0.0539
     18 C           4.7530   -0.6114   -1.0301 C.ar    1  UNL1       -0.0235
     19 S           3.5134    0.2075   -1.8741 S.2     1  UNL1       -0.0902
     20 H          -0.3477    2.8382    1.2132 H       1  UNL1        0.0654
     21 H          -2.6668    3.7150    1.1808 H       1  UNL1        0.0619
     22 H          -4.5318    2.2572    0.4367 H       1  UNL1        0.0618
     23 H          -4.1010   -0.0728   -0.2438 H       1  UNL1        0.0625
     24 H          -0.2590   -2.0829    1.2139 H       1  UNL1        0.0731
     25 H           2.5433   -0.7063    1.4813 H       1  UNL1        0.0631
     26 H           5.0147   -1.4769    0.9417 H       1  UNL1        0.0623
     27 H           5.7034   -0.8008   -1.5110 H       1  UNL1        0.0693
@<TRIPOS>BOND
     1     1     2    2
     2     2     3    1
     3     3     4    1
     4     4     5   ar
     5     5     6   ar
     6     6     7   ar
     7     7     8   ar
     8     8     9   ar
     9     9    10    1
    10    10    11   ar
    11    11    12   ar
    12    12    13   ar
    13    13    14   ar
    14     2    15    1
    15    15    16   ar
    16    16    17   ar
    17    17    18   ar
    18    18    19   ar
    19     9     4   ar
    20    14    10   ar
    21    19    15   ar
    22     5    20    1
    23     6    21    1
    24     7    22    1
    25     8    23    1
    26    11    24    1
    27    16    25    1
    28    17    26    1
    29    18    27    1
