@<TRIPOS>MOLECULE
*****
 48 50 0 0 0
SMALL
GASTEIGER

@<TRIPOS>ATOM
      1 O          -3.4421   -0.4483   -1.1288 O.2     1  UNL1       -0.2449
      2 C          -2.7528   -0.7293   -0.1645 C.2     1  UNL1        0.3410
      3 O          -3.0986   -1.4778    0.9111 O.3     1  UNL1       -0.4614
      4 C          -4.4109   -2.0535    0.8727 C.3     1  UNL1        0.0900
      5 C          -5.4372   -1.0718    1.3941 C.3     1  UNL1       -0.0306
      6 C          -1.3322   -0.3735   -0.0357 C.ar    1  UNL1        0.0817
      7 C          -0.4208   -1.3701   -0.4501 C.ar    1  UNL1       -0.0241
      8 C           0.9706   -1.1701   -0.4182 C.ar    1  UNL1        0.0447
      9 N           1.7881   -2.2213   -0.8835 N.pl3   1  UNL1       -0.3291
     10 C           3.2180   -2.3093   -1.0293 C.3     1  UNL1        0.0136
     11 C           3.0151   -3.8169   -1.1953 C.3     1  UNL1       -0.0214
     12 C           1.6995   -3.5899   -0.4356 C.3     1  UNL1        0.0136
     13 C           1.4093    0.0797    0.0372 C.ar    1  UNL1        0.0817
     14 C           2.8305    0.4222    0.1908 C.2     1  UNL1        0.3410
     15 O           3.2249    1.1067   -0.9144 O.3     1  UNL1       -0.4614
     16 C           4.5945    1.5348   -0.8907 C.3     1  UNL1        0.0900
     17 C           4.7513    2.6847   -1.8717 C.3     1  UNL1       -0.0306
     18 O           3.4910    0.1576    1.1867 O.2     1  UNL1       -0.2449
     19 C           0.4998    1.0691    0.4691 C.ar    1  UNL1       -0.0241
     20 C          -0.8923    0.8704    0.4365 C.ar    1  UNL1        0.0447
     21 N          -1.7318    1.8859    0.9304 N.pl3   1  UNL1       -0.3291
     22 C          -3.1138    2.1479    0.6809 C.3     1  UNL1        0.0136
     23 C          -2.9200    3.4877    1.3853 C.3     1  UNL1       -0.0214
     24 C          -1.4317    3.2736    1.1334 C.3     1  UNL1        0.0136
     25 H          -4.6736   -2.3952   -0.1364 H       1  UNL1        0.0695
     26 H          -4.3892   -2.9379    1.5213 H       1  UNL1        0.0695
     27 H          -5.5200   -0.2151    0.7223 H       1  UNL1        0.0262
     28 H          -6.4231   -1.5395    1.4789 H       1  UNL1        0.0262
     29 H          -5.1476   -0.6927    2.3739 H       1  UNL1        0.0262
     30 H          -0.8166   -2.3178   -0.8190 H       1  UNL1        0.0645
     31 H           3.7844   -2.0429   -0.1426 H       1  UNL1        0.0464
     32 H           3.5844   -1.7942   -1.9211 H       1  UNL1        0.0464
     33 H           3.7332   -4.4638   -0.6995 H       1  UNL1        0.0295
     34 H           2.8940   -4.1391   -2.2338 H       1  UNL1        0.0295
     35 H           0.8320   -4.1431   -0.8039 H       1  UNL1        0.0464
     36 H           1.7741   -3.6738    0.6540 H       1  UNL1        0.0464
     37 H           4.8851    1.8795    0.1099 H       1  UNL1        0.0695
     38 H           5.2292    0.6917   -1.1801 H       1  UNL1        0.0695
     39 H           4.1295    3.5303   -1.5556 H       1  UNL1        0.0262
     40 H           4.4151    2.3984   -2.8762 H       1  UNL1        0.0262
     41 H           5.7929    3.0162   -1.9280 H       1  UNL1        0.0262
     42 H           0.9025    2.0030    0.8543 H       1  UNL1        0.0645
     43 H          -3.7879    1.4601    1.1821 H       1  UNL1        0.0464
     44 H          -3.3438    2.2216   -0.3828 H       1  UNL1        0.0464
     45 H          -3.1852    3.4893    2.4433 H       1  UNL1        0.0295
     46 H          -3.3618    4.3596    0.8890 H       1  UNL1        0.0295
     47 H          -0.7871    3.4584    1.9991 H       1  UNL1        0.0464
     48 H          -1.0292    3.7587    0.2407 H       1  UNL1        0.0464
@<TRIPOS>BOND
     1     1     2    2
     2     2     3    1
     3     3     4    1
     4     4     5    1
     5     2     6    1
     6     6     7   ar
     7     7     8   ar
     8     8     9    1
     9     9    10    1
    10    10    11    1
    11    11    12    1
    12     8    13   ar
    13    13    14    1
    14    14    15    1
    15    15    16    1
    16    16    17    1
    17    14    18    2
    18    13    19   ar
    19    19    20   ar
    20    20    21    1
    21    21    22    1
    22    22    23    1
    23    23    24    1
    24    20     6   ar
    25    12     9    1
    26    24    21    1
    27     4    25    1
    28     4    26    1
    29     5    27    1
    30     5    28    1
    31     5    29    1
    32     7    30    1
    33    10    31    1
    34    10    32    1
    35    11    33    1
    36    11    34    1
    37    12    35    1
    38    12    36    1
    39    16    37    1
    40    16    38    1
    41    17    39    1
    42    17    40    1
    43    17    41    1
    44    19    42    1
    45    22    43    1
    46    22    44    1
    47    23    45    1
    48    23    46    1
    49    24    47    1
    50    24    48    1
