@<TRIPOS>MOLECULE
*****
 39 40 0 0 0
SMALL
GASTEIGER

@<TRIPOS>ATOM
      1 O          -3.2201    0.7842   -0.9357 O.2     1  UNL1       -0.2449
      2 C          -2.3705    0.8484   -0.0660 C.2     1  UNL1        0.3410
      3 O          -2.5421    1.2142    1.2294 O.3     1  UNL1       -0.4614
      4 C          -3.8763    1.5955    1.5938 C.3     1  UNL1        0.0900
      5 C          -4.6786    0.3792    2.0149 C.3     1  UNL1       -0.0306
      6 C          -0.9360    0.5857   -0.2675 C.ar    1  UNL1        0.0800
      7 C          -0.1055    1.7217   -0.2929 C.ar    1  UNL1       -0.0452
      8 C           1.2630    1.5912   -0.5222 C.ar    1  UNL1       -0.0469
      9 C           1.8088    0.3239   -0.7384 C.ar    1  UNL1        0.0608
     10 C           3.2597    0.1127   -0.9965 C.2     1  UNL1        0.3392
     11 O           3.9158    1.2992   -1.0312 O.3     1  UNL1       -0.4614
     12 C           5.3221    1.1852   -1.2813 C.3     1  UNL1        0.0900
     13 C           5.9144    2.5809   -1.2917 C.3     1  UNL1       -0.0306
     14 O           3.7648   -0.9876   -1.1514 O.2     1  UNL1       -0.2450
     15 C           0.9702   -0.8039   -0.7132 C.ar    1  UNL1       -0.0259
     16 C          -0.4149   -0.7066   -0.4655 C.ar    1  UNL1        0.0446
     17 N          -1.1855   -1.8935   -0.4520 N.pl3   1  UNL1       -0.3291
     18 C          -2.4246   -2.1566    0.2240 C.3     1  UNL1        0.0136
     19 C          -2.1659   -3.6416   -0.0381 C.3     1  UNL1       -0.0214
     20 C          -0.7059   -3.2319   -0.2265 C.3     1  UNL1        0.0136
     21 H          -4.3713    2.1398    0.7813 H       1  UNL1        0.0695
     22 H          -3.7898    2.2883    2.4374 H       1  UNL1        0.0695
     23 H          -5.6681    0.6739    2.3759 H       1  UNL1        0.0262
     24 H          -4.1604   -0.1694    2.8082 H       1  UNL1        0.0262
     25 H          -4.8077   -0.3136    1.1780 H       1  UNL1        0.0262
     26 H          -0.5314    2.7119   -0.1419 H       1  UNL1        0.0626
     27 H           1.8845    2.4832   -0.5379 H       1  UNL1        0.0626
     28 H           5.7915    0.5899   -0.4901 H       1  UNL1        0.0695
     29 H           5.4872    0.7056   -2.2526 H       1  UNL1        0.0695
     30 H           5.4391    3.1956   -2.0633 H       1  UNL1        0.0262
     31 H           6.9911    2.5466   -1.4805 H       1  UNL1        0.0262
     32 H           5.7391    3.0811   -0.3335 H       1  UNL1        0.0262
     33 H           1.4143   -1.7814   -0.8959 H       1  UNL1        0.0644
     34 H          -2.4042   -1.8641    1.2784 H       1  UNL1        0.0464
     35 H          -3.3061   -1.7600   -0.2821 H       1  UNL1        0.0464
     36 H          -2.6455   -4.0303   -0.9435 H       1  UNL1        0.0295
     37 H          -2.3682   -4.3142    0.7990 H       1  UNL1        0.0295
     38 H          -0.2028   -3.6690   -1.0921 H       1  UNL1        0.0464
     39 H          -0.0843   -3.3142    0.6713 H       1  UNL1        0.0464
@<TRIPOS>BOND
     1     1     2    2
     2     2     3    1
     3     3     4    1
     4     4     5    1
     5     2     6    1
     6     6     7   ar
     7     7     8   ar
     8     8     9   ar
     9     9    10    1
    10    10    11    1
    11    11    12    1
    12    12    13    1
    13    10    14    2
    14     9    15   ar
    15    15    16   ar
    16    16    17    1
    17    17    18    1
    18    18    19    1
    19    19    20    1
    20    16     6   ar
    21    20    17    1
    22     4    21    1
    23     4    22    1
    24     5    23    1
    25     5    24    1
    26     5    25    1
    27     7    26    1
    28     8    27    1
    29    12    28    1
    30    12    29    1
    31    13    30    1
    32    13    31    1
    33    13    32    1
    34    15    33    1
    35    18    34    1
    36    18    35    1
    37    19    36    1
    38    19    37    1
    39    20    38    1
    40    20    39    1
