@<TRIPOS>MOLECULE
*****
 29 29 0 0 0
SMALL
GASTEIGER

@<TRIPOS>ATOM
      1 O           2.6404   -0.7684   -1.8517 O.2     1  UNL1       -0.2450
      2 C           2.2237   -0.5376   -0.7275 C.2     1  UNL1        0.3392
      3 O           2.9608   -0.5383    0.4114 O.3     1  UNL1       -0.4614
      4 C           4.3539   -0.8443    0.2523 C.3     1  UNL1        0.0900
      5 C           5.1331    0.4176   -0.0673 C.3     1  UNL1       -0.0306
      6 C           0.8034   -0.2090   -0.4306 C.ar    1  UNL1        0.0591
      7 C           0.3417    0.0555    0.8583 C.ar    1  UNL1       -0.0460
      8 C          -1.0115    0.3608    1.0767 C.ar    1  UNL1       -0.0399
      9 C          -1.9544    0.4053    0.0331 C.ar    1  UNL1        0.0292
     10 N          -3.2973    0.7277    0.2590 N.pl3   1  UNL1       -0.3360
     11 C          -4.2729    0.5040   -0.8069 C.3     1  UNL1        0.0004
     12 C          -3.8247    0.6569    1.6210 C.3     1  UNL1        0.0004
     13 C          -1.4523    0.1498   -1.2559 C.ar    1  UNL1       -0.0399
     14 C          -0.1029   -0.1571   -1.4892 C.ar    1  UNL1       -0.0460
     15 H           4.5086   -1.6159   -0.5107 H       1  UNL1        0.0695
     16 H           4.7006   -1.2596    1.2042 H       1  UNL1        0.0695
     17 H           4.8046    0.8525   -1.0166 H       1  UNL1        0.0262
     18 H           4.9688    1.1767    0.7045 H       1  UNL1        0.0262
     19 H           6.2041    0.2061   -0.1323 H       1  UNL1        0.0262
     20 H           1.0159    0.0355    1.7105 H       1  UNL1        0.0626
     21 H          -1.3035    0.5703    2.1015 H       1  UNL1        0.0636
     22 H          -4.3175   -0.5551   -1.0838 H       1  UNL1        0.0428
     23 H          -4.0400    1.1073   -1.6909 H       1  UNL1        0.0428
     24 H          -5.2789    0.8070   -0.4950 H       1  UNL1        0.0428
     25 H          -4.8901    0.9119    1.6497 H       1  UNL1        0.0428
     26 H          -3.7162   -0.3524    2.0334 H       1  UNL1        0.0428
     27 H          -3.3266    1.3788    2.2769 H       1  UNL1        0.0428
     28 H          -2.1003    0.1839   -2.1266 H       1  UNL1        0.0636
     29 H           0.2294   -0.3500   -2.5075 H       1  UNL1        0.0626
@<TRIPOS>BOND
     1     1     2    2
     2     2     3    1
     3     3     4    1
     4     4     5    1
     5     2     6    1
     6     6     7   ar
     7     7     8   ar
     8     8     9   ar
     9     9    10    1
    10    10    11    1
    11    10    12    1
    12     9    13   ar
    13    13    14   ar
    14    14     6   ar
    15     4    15    1
    16     4    16    1
    17     5    17    1
    18     5    18    1
    19     5    19    1
    20     7    20    1
    21     8    21    1
    22    11    22    1
    23    11    23    1
    24    11    24    1
    25    12    25    1
    26    12    26    1
    27    12    27    1
    28    13    28    1
    29    14    29    1
