@<TRIPOS>MOLECULE
*****
 30 31 0 0 0
SMALL
GASTEIGER

@<TRIPOS>ATOM
      1 O           1.6645    0.1664   -1.8482 O.2     1  UNL1       -0.2449
      2 C           1.2163    0.7013   -0.8501 C.2     1  UNL1        0.3410
      3 O           1.8683    0.9428    0.3160 O.3     1  UNL1       -0.4614
      4 C           3.2466    0.5466    0.3484 C.3     1  UNL1        0.0900
      5 C           3.3712   -0.9030    0.7767 C.3     1  UNL1       -0.0306
      6 C          -0.1433    1.2511   -0.7238 C.ar    1  UNL1        0.0799
      7 C          -0.2375    2.6562   -0.7384 C.ar    1  UNL1       -0.0460
      8 C          -1.4799    3.2791   -0.6733 C.ar    1  UNL1       -0.0609
      9 C          -2.6293    2.5020   -0.6048 C.ar    1  UNL1       -0.0600
     10 C          -2.5331    1.1056   -0.5918 C.ar    1  UNL1       -0.0399
     11 C          -1.2908    0.4406   -0.6362 C.ar    1  UNL1        0.0438
     12 N          -1.2772   -0.9746   -0.6095 N.pl3   1  UNL1       -0.3292
     13 C          -0.2354   -1.8543   -0.1592 C.3     1  UNL1        0.0136
     14 C          -1.2852   -2.9672   -0.1436 C.3     1  UNL1       -0.0214
     15 C          -2.3106   -1.8352   -0.0980 C.3     1  UNL1        0.0136
     16 H           3.7451    1.1897    1.0812 H       1  UNL1        0.0695
     17 H           3.7345    0.7220   -0.6173 H       1  UNL1        0.0695
     18 H           4.4219   -1.1850    0.8881 H       1  UNL1        0.0262
     19 H           2.9099   -1.5696    0.0419 H       1  UNL1        0.0262
     20 H           2.8564   -1.0700    1.7284 H       1  UNL1        0.0262
     21 H           0.6628    3.2624   -0.8111 H       1  UNL1        0.0626
     22 H          -1.5511    4.3634   -0.6879 H       1  UNL1        0.0618
     23 H          -3.6068    2.9765   -0.5664 H       1  UNL1        0.0618
     24 H          -3.4566    0.5329   -0.5499 H       1  UNL1        0.0636
     25 H           0.1589   -1.5789    0.8240 H       1  UNL1        0.0464
     26 H           0.5677   -2.0067   -0.8817 H       1  UNL1        0.0464
     27 H          -1.2656   -3.6277    0.7267 H       1  UNL1        0.0295
     28 H          -1.3185   -3.5687   -1.0589 H       1  UNL1        0.0295
     29 H          -3.1629   -1.9455   -0.7724 H       1  UNL1        0.0464
     30 H          -2.6402   -1.5522    0.9072 H       1  UNL1        0.0464
@<TRIPOS>BOND
     1     1     2    2
     2     2     3    1
     3     3     4    1
     4     4     5    1
     5     2     6    1
     6     6     7   ar
     7     7     8   ar
     8     8     9   ar
     9     9    10   ar
    10    10    11   ar
    11    11    12    1
    12    12    13    1
    13    13    14    1
    14    14    15    1
    15    11     6   ar
    16    15    12    1
    17     4    16    1
    18     4    17    1
    19     5    18    1
    20     5    19    1
    21     5    20    1
    22     7    21    1
    23     8    22    1
    24     9    23    1
    25    10    24    1
    26    13    25    1
    27    13    26    1
    28    14    27    1
    29    14    28    1
    30    15    29    1
    31    15    30    1
