@<TRIPOS>MOLECULE
*****
 27 28 0 0 0
SMALL
GASTEIGER

@<TRIPOS>ATOM
      1 O           0.4806   -1.0472   -1.9415 O.2     1  UNL1       -0.2432
      2 C           0.9285   -0.8092   -0.8282 C.2     1  UNL1        0.3580
      3 O           0.3595   -1.1629    0.3507 O.3     1  UNL1       -0.4553
      4 C          -0.8784   -1.8745    0.2651 C.3     1  UNL1        0.1192
      5 C          -2.0343   -0.9109    0.3784 C.ar    1  UNL1        0.0082
      6 C          -2.6599   -0.4612   -0.8000 C.ar    1  UNL1       -0.0513
      7 C          -3.7172    0.4468   -0.7431 C.ar    1  UNL1       -0.0260
      8 C          -4.1497    0.9154    0.4898 C.ar    1  UNL1        0.1248
      9 F          -5.1644    1.7880    0.5437 F       1  UNL1       -0.2054
     10 C          -3.5448    0.4976    1.6673 C.ar    1  UNL1       -0.0077
     11 C          -2.4857   -0.4110    1.6123 C.ar    1  UNL1        0.0501
     12 CL         -1.7669   -0.8873    3.1092 Cl      1  UNL1       -0.0831
     13 C           2.2041   -0.0657   -0.5943 C.ar    1  UNL1        0.1475
     14 C           2.9108    0.4100   -1.6952 C.ar    1  UNL1       -0.0293
     15 C           4.0979    1.1025   -1.4729 C.ar    1  UNL1       -0.0581
     16 C           4.5389    1.2967   -0.1682 C.ar    1  UNL1       -0.0435
     17 C           3.7732    0.7883    0.8689 C.ar    1  UNL1        0.0285
     18 N           2.6193    0.1120    0.6885 N.ar    1  UNL1       -0.2484
     19 H          -0.9038   -2.6078    1.0785 H       1  UNL1        0.0749
     20 H          -0.9470   -2.4706   -0.6541 H       1  UNL1        0.0749
     21 H          -2.3156   -0.8135   -1.7720 H       1  UNL1        0.0623
     22 H          -4.1999    0.7939   -1.6515 H       1  UNL1        0.0646
     23 H          -3.9022    0.8873    2.6149 H       1  UNL1        0.0661
     24 H           2.5465    0.2469   -2.7048 H       1  UNL1        0.0641
     25 H           4.6732    1.4876   -2.3106 H       1  UNL1        0.0619
     26 H           5.4593    1.8329    0.0369 H       1  UNL1        0.0633
     27 H           4.0779    0.9160    1.9043 H       1  UNL1        0.0830
@<TRIPOS>BOND
     1     1     2    2
     2     2     3    1
     3     3     4    1
     4     4     5    1
     5     5     6   ar
     6     6     7   ar
     7     7     8   ar
     8     8     9    1
     9     8    10   ar
    10    10    11   ar
    11    11    12    1
    12     2    13    1
    13    13    14   ar
    14    14    15   ar
    15    15    16   ar
    16    16    17   ar
    17    17    18   ar
    18    11     5   ar
    19    18    13   ar
    20     4    19    1
    21     4    20    1
    22     6    21    1
    23     7    22    1
    24    10    23    1
    25    14    24    1
    26    15    25    1
    27    16    26    1
    28    17    27    1
