@<TRIPOS>MOLECULE
*****
 32 34 0 0 0
SMALL
GASTEIGER

@<TRIPOS>ATOM
      1 O          -2.7435   -1.3105    1.4056 O.2     1  UNL1       -0.2444
      2 C          -3.1122   -0.5281    0.5387 C.2     1  UNL1        0.3459
      3 O          -2.2817    0.3639   -0.0787 O.3     1  UNL1       -0.4592
      4 C          -0.9167    0.3653    0.3725 C.3     1  UNL1        0.1090
      5 C          -0.1252   -0.7925   -0.2388 C.3     1  UNL1        0.0572
      6 N           1.3060   -0.6105   -0.0917 N.am    1  UNL1       -0.2308
      7 C           2.0846    0.0576   -0.9967 C.2     1  UNL1        0.2539
      8 O           1.7617    0.5797   -2.0462 O.2     1  UNL1       -0.2695
      9 C           3.4395    0.0720   -0.4483 C.ar    1  UNL1        0.0494
     10 C           4.6099    0.5922   -0.9646 C.ar    1  UNL1       -0.0489
     11 C           5.7645    0.4599   -0.1864 C.ar    1  UNL1       -0.0610
     12 C           5.7205   -0.1766    1.0720 C.ar    1  UNL1       -0.0610
     13 C           4.5212   -0.6919    1.5743 C.ar    1  UNL1       -0.0489
     14 C           3.3963   -0.5521    0.7855 C.ar    1  UNL1        0.0494
     15 C           2.0140   -0.9641    1.0237 C.2     1  UNL1        0.2539
     16 O           1.6229   -1.4885    2.0477 O.2     1  UNL1       -0.2695
     17 C          -4.4529   -0.3996   -0.0009 C.ar    1  UNL1        0.0962
     18 C          -4.9333    0.4550   -0.9788 C.ar    1  UNL1       -0.0406
     19 C          -6.3241    0.2720   -1.2331 C.ar    1  UNL1       -0.0539
     20 C          -6.8647   -0.7162   -0.4427 C.ar    1  UNL1       -0.0235
     21 S          -5.7008   -1.4149    0.5959 S.2     1  UNL1       -0.0903
     22 H          -0.8668    0.3583    1.4683 H       1  UNL1        0.0713
     23 H          -0.4901    1.3222    0.0504 H       1  UNL1        0.0713
     24 H          -0.3625   -0.8784   -1.3056 H       1  UNL1        0.0503
     25 H          -0.4105   -1.7374    0.2360 H       1  UNL1        0.0503
     26 H           4.6287    1.0826   -1.9325 H       1  UNL1        0.0625
     27 H           6.7106    0.8541   -0.5539 H       1  UNL1        0.0618
     28 H           6.6331   -0.2653    1.6594 H       1  UNL1        0.0618
     29 H           4.4719   -1.1806    2.5421 H       1  UNL1        0.0625
     30 H          -4.3144    1.1823   -1.4920 H       1  UNL1        0.0631
     31 H          -6.8975    0.8365   -1.9585 H       1  UNL1        0.0623
     32 H          -7.8886   -1.0642   -0.4229 H       1  UNL1        0.0693
@<TRIPOS>BOND
     1     1     2    2
     2     2     3    1
     3     3     4    1
     4     4     5    1
     5     5     6    1
     6     6     7   am
     7     7     8    2
     8     7     9    1
     9     9    10   ar
    10    10    11   ar
    11    11    12   ar
    12    12    13   ar
    13    13    14   ar
    14    14    15    1
    15    15    16    2
    16     2    17    1
    17    17    18   ar
    18    18    19   ar
    19    19    20   ar
    20    20    21   ar
    21    15     6   am
    22    21    17   ar
    23    14     9   ar
    24     4    22    1
    25     4    23    1
    26     5    24    1
    27     5    25    1
    28    10    26    1
    29    11    27    1
    30    12    28    1
    31    13    29    1
    32    18    30    1
    33    19    31    1
    34    20    32    1
