@<TRIPOS>MOLECULE
*****
 28 30 0 0 0
SMALL
GASTEIGER

@<TRIPOS>ATOM
      1 O          -1.5289   -2.2154   -0.5216 O.2     1  UNL1       -0.2860
      2 C          -1.6990   -1.0329   -0.2800 C.2     1  UNL1        0.2019
      3 C          -0.6280   -0.0184   -0.0641 C.2     1  UNL1        0.0737
      4 C           0.6721   -0.3345   -0.1198 C.2     1  UNL1        0.0113
      5 N           1.7466    0.5044    0.0601 N.pl3   1  UNL1       -0.3182
      6 C           3.1185    0.2159    0.0105 C.ar    1  UNL1        0.0493
      7 C           3.6470   -1.0506   -0.2459 C.ar    1  UNL1       -0.0376
      8 C           5.0291   -1.2484   -0.2768 C.ar    1  UNL1       -0.0418
      9 C           5.8582   -0.1647   -0.0483 C.ar    1  UNL1        0.0277
     10 N           5.4041    1.0781    0.2038 N.ar    1  UNL1       -0.2614
     11 C           4.0565    1.2319    0.2259 C.ar    1  UNL1        0.0487
     12 S          -1.2722    1.5633    0.2561 S.3     1  UNL1       -0.0837
     13 C          -2.9346    0.9607    0.1206 C.ar    1  UNL1        0.0237
     14 C          -4.0928    1.7107    0.2665 C.ar    1  UNL1       -0.0473
     15 C          -5.3313    1.0741    0.1270 C.ar    1  UNL1       -0.0607
     16 C          -5.4035   -0.2986   -0.1554 C.ar    1  UNL1       -0.0610
     17 C          -4.2375   -1.0507   -0.3016 C.ar    1  UNL1       -0.0498
     18 C          -3.0184   -0.4009   -0.1595 C.ar    1  UNL1        0.0365
     19 H           0.9351   -1.3682   -0.3301 H       1  UNL1        0.0794
     20 H           1.5033    1.4724    0.2571 H       1  UNL1        0.1517
     21 H           3.0052   -1.9062   -0.4262 H       1  UNL1        0.0637
     22 H           5.4452   -2.2298   -0.4754 H       1  UNL1        0.0633
     23 H           6.9389   -0.2718   -0.0626 H       1  UNL1        0.0829
     24 H           3.7349    2.2492    0.4326 H       1  UNL1        0.0848
     25 H          -4.0467    2.7737    0.4851 H       1  UNL1        0.0629
     26 H          -6.2488    1.6489    0.2385 H       1  UNL1        0.0618
     27 H          -6.3744   -0.7784   -0.2608 H       1  UNL1        0.0618
     28 H          -4.2787   -2.1139   -0.5202 H       1  UNL1        0.0625
@<TRIPOS>BOND
     1     1     2    2
     2     2     3    1
     3     3     4    2
     4     4     5    1
     5     5     6    1
     6     6     7   ar
     7     7     8   ar
     8     8     9   ar
     9     9    10   ar
    10    10    11   ar
    11     3    12    1
    12    12    13    1
    13    13    14   ar
    14    14    15   ar
    15    15    16   ar
    16    16    17   ar
    17    17    18   ar
    18    18     2    1
    19    11     6   ar
    20    18    13   ar
    21     4    19    1
    22     5    20    1
    23     7    21    1
    24     8    22    1
    25     9    23    1
    26    11    24    1
    27    14    25    1
    28    15    26    1
    29    16    27    1
    30    17    28    1
