@<TRIPOS>MOLECULE
*****
 44 50 0 0 0
SMALL
GASTEIGER

@<TRIPOS>ATOM
      1 SI         -5.5708   -0.5271   -0.1464 Si      1  UNL1        0.0000
      2 C          -6.5783    1.0152   -0.3539 C.2     1  UNL1        0.0000
      3 C          -5.7974    2.1053   -0.3671 C.2     1  UNL1        0.0000
      4 C          -4.3627    1.8152   -0.2278 C.ar    1  UNL1        0.0000
      5 N          -3.5214    2.8385   -0.3036 N.ar    1  UNL1        0.0000
      6 C          -2.2165    2.4986   -0.2588 C.ar    1  UNL1        0.0000
      7 C          -1.6603    1.2029   -0.1157 C.ar    1  UNL1        0.0000
      8 C          -0.2397    0.9947   -0.1609 C.ar    1  UNL1        0.0000
      9 C           0.6913    2.0503   -0.3752 C.ar    1  UNL1        0.0000
     10 C           2.0757    1.8627   -0.4435 C.ar    1  UNL1        0.0000
     11 C           2.6261    0.6001   -0.2957 C.ar    1  UNL1        0.0000
     12 C           1.7117   -0.4512   -0.0934 C.ar    1  UNL1        0.0000
     13 C           0.2892   -0.3062   -0.0144 C.ar    1  UNL1        0.0000
     14 C          -0.5941   -1.4086    0.2258 C.ar    1  UNL1        0.0000
     15 C          -0.1004   -2.7349    0.4028 C.ar    1  UNL1        0.0000
     16 C          -0.9111   -3.8237    0.7059 C.ar    1  UNL1        0.0000
     17 C          -2.2579   -3.6176    0.8672 C.ar    1  UNL1        0.0000
     18 C          -2.7763   -2.3350    0.6820 C.ar    1  UNL1        0.0000
     19 C          -2.0026   -1.1993    0.3110 C.ar    1  UNL1        0.0000
     20 C          -2.5701    0.1196    0.0597 C.ar    1  UNL1        0.0000
     21 C          -3.9619    0.4714   -0.0560 C.ar    1  UNL1        0.0000
     22 C           4.0698    0.3338   -0.3634 C.ar    1  UNL1        0.0000
     23 N           4.4759   -0.9096   -0.8076 N.ar    1  UNL1        0.0000
     24 C           5.7979   -1.2502   -0.9079 C.ar    1  UNL1        0.0000
     25 C           6.8945   -0.4607   -0.5905 C.ar    1  UNL1        0.0000
     26 C           6.5437    0.8152   -0.1152 C.ar    1  UNL1        0.0000
     27 N           7.4174    1.7601    0.2671 N.ar    1  UNL1        0.0000
     28 S           6.5186    3.0638    0.7574 S.2     1  UNL1        0.0000
     29 N           4.9844    2.4944    0.4991 N.ar    1  UNL1        0.0000
     30 C           5.1012    1.2443    0.0111 C.ar    1  UNL1        0.0000
     31 H          -5.8930   -1.2128    1.1305 H       1  UNL1        0.0000
     32 H          -5.6314   -1.4051   -1.3406 H       1  UNL1        0.0000
     33 H          -7.6529    0.9962   -0.4467 H       1  UNL1        0.0000
     34 H          -6.1403    3.1245   -0.4782 H       1  UNL1        0.0000
     35 H          -1.5919    3.3808   -0.3554 H       1  UNL1        0.0000
     36 H           0.3654    3.0778   -0.5113 H       1  UNL1        0.0000
     37 H           2.7002    2.7334   -0.6304 H       1  UNL1        0.0000
     38 H           2.1582   -1.4368    0.0148 H       1  UNL1        0.0000
     39 H           0.9580   -2.9621    0.3166 H       1  UNL1        0.0000
     40 H          -0.4797   -4.8115    0.8382 H       1  UNL1        0.0000
     41 H          -2.9129   -4.4388    1.1450 H       1  UNL1        0.0000
     42 H          -3.8312   -2.2529    0.8935 H       1  UNL1        0.0000
     43 H           5.9586   -2.2614   -1.2821 H       1  UNL1        0.0000
     44 H           7.9172   -0.7933   -0.6922 H       1  UNL1        0.0000
@<TRIPOS>BOND
     1     1     2    1
     2     2     3    2
     3     3     4    1
     4     4     5   ar
     5     5     6   ar
     6     6     7   ar
     7     7     8   ar
     8     8     9   ar
     9     9    10   ar
    10    10    11   ar
    11    11    12   ar
    12    12    13   ar
    13    13    14   ar
    14    14    15   ar
    15    15    16   ar
    16    16    17   ar
    17    17    18   ar
    18    18    19   ar
    19    19    20   ar
    20    20    21   ar
    21    11    22    1
    22    22    23   ar
    23    23    24   ar
    24    24    25   ar
    25    25    26   ar
    26    26    27   ar
    27    27    28   ar
    28    28    29   ar
    29    29    30   ar
    30    21     1    1
    31    30    22   ar
    32    21     4   ar
    33    30    26   ar
    34    20     7   ar
    35    13     8   ar
    36    19    14   ar
    37     1    31    1
    38     1    32    1
    39     2    33    1
    40     3    34    1
    41     6    35    1
    42     9    36    1
    43    10    37    1
    44    12    38    1
    45    15    39    1
    46    16    40    1
    47    17    41    1
    48    18    42    1
    49    24    43    1
    50    25    44    1
