@<TRIPOS>MOLECULE
*****
 36 39 0 0 0
SMALL
GASTEIGER

@<TRIPOS>ATOM
      1 O           0.4480    2.3617   -1.8527 O.2     1  UNL1       -0.2679
      2 C          -0.0390    1.3412   -1.4144 C.2     1  UNL1        0.2718
      3 C          -1.4550    1.2291   -0.8184 C.2     1  UNL1        0.1555
      4 N          -2.1984    2.2882   -0.7216 N.2     1  UNL1       -0.1587
      5 N          -3.3364    2.2116   -0.0035 N.ar    1  UNL1       -0.2065
      6 C          -3.4938    1.9283    1.3294 C.ar    1  UNL1        0.1414
      7 N          -4.7647    1.9875    1.6574 N.ar    1  UNL1       -0.1363
      8 N          -5.4565    2.4142    0.5465 N.ar    1  UNL1       -0.1363
      9 C          -4.5815    2.5967   -0.4174 C.ar    1  UNL1        0.1414
     10 C          -1.6295   -0.1923   -0.4746 C.ar    1  UNL1        0.0286
     11 C          -2.7223   -0.9153   -0.0236 C.ar    1  UNL1       -0.0506
     12 C          -2.5565   -2.2849    0.2023 C.ar    1  UNL1       -0.0610
     13 C          -1.3245   -2.9094   -0.0437 C.ar    1  UNL1       -0.0600
     14 C          -0.2409   -2.1793   -0.5384 C.ar    1  UNL1       -0.0396
     15 C          -0.4122   -0.8229   -0.7607 C.ar    1  UNL1        0.0464
     16 N           0.5107    0.0814   -1.3082 N.am    1  UNL1       -0.2612
     17 C           1.8682   -0.2294   -1.6951 C.3     1  UNL1        0.0452
     18 C           2.8178   -0.2491   -0.5198 C.ar    1  UNL1       -0.0297
     19 C           3.0977    0.9307    0.1873 C.ar    1  UNL1       -0.0571
     20 C           3.9708    0.9163    1.2760 C.ar    1  UNL1       -0.0615
     21 C           4.5774   -0.2749    1.6678 C.ar    1  UNL1       -0.0617
     22 C           4.3152   -1.4516    0.9692 C.ar    1  UNL1       -0.0615
     23 C           3.4422   -1.4396   -0.1204 C.ar    1  UNL1       -0.0571
     24 H          -2.6703    1.6864    1.9834 H       1  UNL1        0.1067
     25 H          -4.7787    2.9689   -1.4108 H       1  UNL1        0.1067
     26 H          -3.6976   -0.4727    0.1438 H       1  UNL1        0.0625
     27 H          -3.3953   -2.8764    0.5667 H       1  UNL1        0.0618
     28 H          -1.2187   -3.9774    0.1388 H       1  UNL1        0.0618
     29 H           0.6950   -2.6846   -0.7459 H       1  UNL1        0.0636
     30 H           1.8763   -1.1857   -2.2310 H       1  UNL1        0.0518
     31 H           2.2207    0.5251   -2.4096 H       1  UNL1        0.0518
     32 H           2.6401    1.8731   -0.1106 H       1  UNL1        0.0621
     33 H           4.1796    1.8367    1.8154 H       1  UNL1        0.0618
     34 H           5.2586   -0.2845    2.5147 H       1  UNL1        0.0618
     35 H           4.7946   -2.3790    1.2723 H       1  UNL1        0.0618
     36 H           3.2589   -2.3682   -0.6554 H       1  UNL1        0.0621
@<TRIPOS>BOND
     1     1     2    2
     2     2     3    1
     3     3     4    2
     4     4     5    1
     5     5     6   ar
     6     6     7   ar
     7     7     8   ar
     8     8     9   ar
     9     3    10    1
    10    10    11   ar
    11    11    12   ar
    12    12    13   ar
    13    13    14   ar
    14    14    15   ar
    15    15    16    1
    16    16    17    1
    17    17    18    1
    18    18    19   ar
    19    19    20   ar
    20    20    21   ar
    21    21    22   ar
    22    22    23   ar
    23    16     2   am
    24    23    18   ar
    25     9     5   ar
    26    15    10   ar
    27     6    24    1
    28     9    25    1
    29    11    26    1
    30    12    27    1
    31    13    28    1
    32    14    29    1
    33    17    30    1
    34    17    31    1
    35    19    32    1
    36    20    33    1
    37    21    34    1
    38    22    35    1
    39    23    36    1
