@<TRIPOS>MOLECULE
*****
 37 38 0 0 0
SMALL
GASTEIGER

@<TRIPOS>ATOM
      1 O           3.8572    0.4371    2.0670 O.2     1  UNL1       -0.2443
      2 C           3.0539    0.1618    1.1790 C.ar    1  UNL1        0.3496
      3 C           3.4881   -0.4318   -0.1045 C.ar    1  UNL1        0.1228
      4 C           4.9189   -0.7374   -0.4126 C.2     1  UNL1        0.2643
      5 N           5.8347   -0.4334    0.5807 N.am    1  UNL1       -0.2494
      6 N           7.2016   -0.7410    0.3957 N.3     1  UNL1       -0.2541
      7 O           5.2625   -1.2340   -1.4865 O.2     1  UNL1       -0.2687
      8 C           2.5895   -0.7234   -1.0604 C.ar    1  UNL1       -0.0320
      9 C           1.1765   -0.4619   -0.8529 C.ar    1  UNL1        0.0184
     10 C           0.2130   -0.7451   -1.8108 C.ar    1  UNL1       -0.0493
     11 C          -1.1405   -0.4683   -1.5508 C.ar    1  UNL1       -0.0399
     12 C          -1.5879    0.0956   -0.3387 C.ar    1  UNL1        0.0332
     13 N          -2.9308    0.3639   -0.0956 N.pl3   1  UNL1       -0.3303
     14 C          -3.4113    0.8249    1.2150 C.3     1  UNL1        0.0093
     15 C          -3.3475    2.3422    1.3177 C.3     1  UNL1       -0.0494
     16 C          -3.9620    0.2073   -1.1309 C.3     1  UNL1        0.0093
     17 C          -4.5097   -1.2127   -1.1463 C.3     1  UNL1       -0.0494
     18 C          -0.5847    0.3677    0.6066 C.ar    1  UNL1        0.0024
     19 C           0.7615    0.0919    0.3445 C.ar    1  UNL1        0.1408
     20 O           1.6951    0.4015    1.3505 O.2     1  UNL1       -0.4216
     21 H           5.5240   -0.0625    1.4866 H       1  UNL1        0.1690
     22 H           7.2444   -1.5381   -0.2529 H       1  UNL1        0.1405
     23 H           7.6198    0.0258   -0.1389 H       1  UNL1        0.1405
     24 H           2.8871   -1.1601   -2.0102 H       1  UNL1        0.0634
     25 H           0.4870   -1.1836   -2.7674 H       1  UNL1        0.0625
     26 H          -1.8431   -0.7243   -2.3386 H       1  UNL1        0.0636
     27 H          -4.4540    0.5125    1.3562 H       1  UNL1        0.0461
     28 H          -2.8651    0.3521    2.0389 H       1  UNL1        0.0461
     29 H          -2.3240    2.7139    1.2108 H       1  UNL1        0.0245
     30 H          -3.7278    2.6711    2.2899 H       1  UNL1        0.0245
     31 H          -3.9546    2.8149    0.5386 H       1  UNL1        0.0245
     32 H          -3.5930    0.4968   -2.1212 H       1  UNL1        0.0461
     33 H          -4.7930    0.8959   -0.9310 H       1  UNL1        0.0461
     34 H          -3.7292   -1.9469   -1.3672 H       1  UNL1        0.0245
     35 H          -4.9472   -1.4759   -0.1775 H       1  UNL1        0.0245
     36 H          -5.2903   -1.3081   -1.9075 H       1  UNL1        0.0245
     37 H          -0.8192    0.8114    1.5681 H       1  UNL1        0.0673
@<TRIPOS>BOND
     1     1     2    2
     2     2     3   ar
     3     3     4    1
     4     4     5   am
     5     5     6    1
     6     4     7    2
     7     3     8   ar
     8     8     9   ar
     9     9    10   ar
    10    10    11   ar
    11    11    12   ar
    12    12    13    1
    13    13    14    1
    14    14    15    1
    15    13    16    1
    16    16    17    1
    17    12    18   ar
    18    18    19   ar
    19    19    20   ar
    20    20     2   ar
    21    19     9   ar
    22     5    21    1
    23     6    22    1
    24     6    23    1
    25     8    24    1
    26    10    25    1
    27    11    26    1
    28    14    27    1
    29    14    28    1
    30    15    29    1
    31    15    30    1
    32    15    31    1
    33    16    32    1
    34    16    33    1
    35    17    34    1
    36    17    35    1
    37    17    36    1
    38    18    37    1
