@<TRIPOS>MOLECULE
*****
 34 35 0 0 0
SMALL
GASTEIGER

@<TRIPOS>ATOM
      1 O           3.5852   -1.1434    3.4167 O.2     1  UNL1       -0.2443
      2 C           3.1152   -0.8363    2.3277 C.ar    1  UNL1        0.3514
      3 C           3.9396   -0.6742    1.1077 C.ar    1  UNL1        0.1436
      4 C           5.3808   -0.9919    1.1451 C.2     1  UNL1        0.3438
      5 O           6.0872   -0.3749    0.1747 O.3     1  UNL1       -0.4770
      6 O           5.9517   -1.7275    1.9281 O.2     1  UNL1       -0.2449
      7 C           3.3879   -0.2690   -0.0498 C.ar    1  UNL1       -0.0301
      8 C           1.9663    0.0148   -0.1336 C.ar    1  UNL1        0.0185
      9 C           1.3547    0.4489   -1.3019 C.ar    1  UNL1       -0.0493
     10 C          -0.0289    0.6960   -1.3215 C.ar    1  UNL1       -0.0399
     11 C          -0.8519    0.5218   -0.1906 C.ar    1  UNL1        0.0332
     12 N          -2.2208    0.7701   -0.2252 N.pl3   1  UNL1       -0.3303
     13 C          -2.8378    1.5337   -1.3187 C.3     1  UNL1        0.0093
     14 C          -3.3735    0.6135   -2.4049 C.3     1  UNL1       -0.0494
     15 C          -3.1227    0.3202    0.8467 C.3     1  UNL1        0.0093
     16 C          -3.3411   -1.1864    0.8050 C.3     1  UNL1       -0.0494
     17 C          -0.1997    0.0794    0.9719 C.ar    1  UNL1        0.0024
     18 C           1.1773   -0.1641    0.9876 C.ar    1  UNL1        0.1408
     19 O           1.7471   -0.5971    2.1986 O.2     1  UNL1       -0.4215
     20 H           7.0070   -0.6718    0.3449 H       1  UNL1        0.2954
     21 H           3.9734   -0.1551   -0.9572 H       1  UNL1        0.0635
     22 H           1.9290    0.5984   -2.2128 H       1  UNL1        0.0625
     23 H          -0.4506    1.0145   -2.2706 H       1  UNL1        0.0636
     24 H          -2.1431    2.2671   -1.7441 H       1  UNL1        0.0461
     25 H          -3.6673    2.1370   -0.9285 H       1  UNL1        0.0461
     26 H          -3.7866    1.2037   -3.2289 H       1  UNL1        0.0245
     27 H          -4.1730   -0.0266   -2.0193 H       1  UNL1        0.0245
     28 H          -2.5914   -0.0361   -2.8093 H       1  UNL1        0.0245
     29 H          -2.7586    0.6366    1.8303 H       1  UNL1        0.0461
     30 H          -4.1032    0.8011    0.7407 H       1  UNL1        0.0461
     31 H          -3.7476   -1.5012   -0.1610 H       1  UNL1        0.0245
     32 H          -2.4128   -1.7408    0.9699 H       1  UNL1        0.0245
     33 H          -4.0509   -1.4843    1.5833 H       1  UNL1        0.0245
     34 H          -0.7409   -0.0763    1.8988 H       1  UNL1        0.0673
@<TRIPOS>BOND
     1     1     2    2
     2     2     3   ar
     3     3     4    1
     4     4     5    1
     5     4     6    2
     6     3     7   ar
     7     7     8   ar
     8     8     9   ar
     9     9    10   ar
    10    10    11   ar
    11    11    12    1
    12    12    13    1
    13    13    14    1
    14    12    15    1
    15    15    16    1
    16    11    17   ar
    17    17    18   ar
    18    18    19   ar
    19    19     2   ar
    20    18     8   ar
    21     5    20    1
    22     7    21    1
    23     9    22    1
    24    10    23    1
    25    13    24    1
    26    13    25    1
    27    14    26    1
    28    14    27    1
    29    14    28    1
    30    15    29    1
    31    15    30    1
    32    16    31    1
    33    16    32    1
    34    16    33    1
    35    17    34    1
