@<TRIPOS>MOLECULE
*****
 24 25 0 0 0
SMALL
GASTEIGER

@<TRIPOS>ATOM
      1 O           3.2886   -0.8307    2.4155 O.2     1  UNL1       -0.2443
      2 C           2.4532   -0.5187    1.5756 C.ar    1  UNL1        0.3514
      3 C           2.7975   -0.2138    0.1676 C.ar    1  UNL1        0.1436
      4 C           4.2126   -0.1697   -0.2508 C.2     1  UNL1        0.3438
      5 O           4.3820   -0.3727   -1.5743 O.3     1  UNL1       -0.4770
      6 O           5.1825    0.0310    0.4555 O.2     1  UNL1       -0.2449
      7 C           1.8393    0.0561   -0.7365 C.ar    1  UNL1       -0.0301
      8 C           0.4375    0.0613   -0.3545 C.ar    1  UNL1        0.0186
      9 C          -0.5852    0.3213   -1.2671 C.ar    1  UNL1       -0.0476
     10 C          -1.9225    0.3251   -0.8456 C.ar    1  UNL1       -0.0192
     11 C          -2.2442    0.0705    0.4908 C.ar    1  UNL1        0.1236
     12 O          -3.5028    0.0463    1.0238 O.3     1  UNL1       -0.4950
     13 C          -4.5853    0.3033    0.1381 C.3     1  UNL1        0.0788
     14 C          -1.2198   -0.1887    1.4025 C.ar    1  UNL1        0.0231
     15 C           0.1032   -0.1900    0.9685 C.ar    1  UNL1        0.1426
     16 O           1.1023   -0.4615    1.9187 O.2     1  UNL1       -0.4215
     17 H           5.3565   -0.3302   -1.6836 H       1  UNL1        0.2954
     18 H           2.0756    0.2926   -1.7698 H       1  UNL1        0.0635
     19 H          -0.3603    0.5237   -2.3119 H       1  UNL1        0.0626
     20 H          -2.6885    0.5314   -1.5866 H       1  UNL1        0.0654
     21 H          -4.5180    1.3110   -0.2851 H       1  UNL1        0.0660
     22 H          -5.5120    0.2466    0.7174 H       1  UNL1        0.0660
     23 H          -4.6383   -0.4546   -0.6504 H       1  UNL1        0.0660
     24 H          -1.4539   -0.3895    2.4442 H       1  UNL1        0.0691
@<TRIPOS>BOND
     1     1     2    2
     2     2     3   ar
     3     3     4    1
     4     4     5    1
     5     4     6    2
     6     3     7   ar
     7     7     8   ar
     8     8     9   ar
     9     9    10   ar
    10    10    11   ar
    11    11    12    1
    12    12    13    1
    13    11    14   ar
    14    14    15   ar
    15    15    16   ar
    16    16     2   ar
    17    15     8   ar
    18     5    17    1
    19     7    18    1
    20     9    19    1
    21    10    20    1
    22    13    21    1
    23    13    22    1
    24    13    23    1
    25    14    24    1
