@<TRIPOS>MOLECULE
*****
 31 33 0 0 0
SMALL
GASTEIGER

@<TRIPOS>ATOM
      1 O          -5.0943    0.2702    0.0290 O.2     1  UNL1       -0.2848
      2 C          -3.9292    0.5156   -0.2703 C.2     1  UNL1        0.2157
      3 C          -2.7745   -0.2088    0.3548 C.2     1  UNL1        0.0950
      4 CL         -3.2927   -1.3976    1.5165 Cl      1  UNL1       -0.0792
      5 C          -1.4772    0.0319    0.0527 C.2     1  UNL1        0.0101
      6 C          -0.2225   -0.6611    0.6422 C.3     1  UNL1        0.0207
      7 C          -0.1605   -0.4165    2.1718 C.3     1  UNL1       -0.0516
      8 C          -0.2644   -2.1775    0.3231 C.3     1  UNL1       -0.0516
      9 C           1.1084   -0.1344    0.0657 C.ar    1  UNL1       -0.0085
     10 C           1.1168    0.8763   -0.8975 C.ar    1  UNL1        0.0688
     11 C           2.3310    1.3488   -1.4159 C.ar    1  UNL1       -0.0326
     12 C           3.5487    0.8281   -0.9884 C.ar    1  UNL1       -0.0182
     13 C           3.5517   -0.1730   -0.0349 C.ar    1  UNL1        0.1173
     14 O           4.7571   -0.6652    0.3662 O.3     1  UNL1       -0.5068
     15 C           2.3550   -0.6548    0.4913 C.ar    1  UNL1       -0.0142
     16 N          -0.0409    1.4622   -1.3906 N.2     1  UNL1       -0.2472
     17 C          -1.2022    1.0886   -0.9694 C.2     1  UNL1        0.0715
     18 C          -2.3342    1.8045   -1.5877 C.2     1  UNL1       -0.0138
     19 C          -3.5976    1.5459   -1.2704 C.2     1  UNL1        0.0910
     20 CL         -4.8865    2.4088   -2.0200 Cl      1  UNL1       -0.0795
     21 H           0.7146   -0.8860    2.6347 H       1  UNL1        0.0241
     22 H          -0.1064    0.6567    2.3945 H       1  UNL1        0.0241
     23 H          -1.0201   -0.8182    2.7103 H       1  UNL1        0.0241
     24 H          -0.2838   -2.3488   -0.7606 H       1  UNL1        0.0241
     25 H          -1.1303   -2.6865    0.7491 H       1  UNL1        0.0241
     26 H           0.6069   -2.7117    0.7182 H       1  UNL1        0.0241
     27 H           2.3190    2.1365   -2.1656 H       1  UNL1        0.0640
     28 H           4.4818    1.2027   -1.3976 H       1  UNL1        0.0655
     29 H           4.6124   -1.3562    1.0326 H       1  UNL1        0.2921
     30 H           2.3913   -1.4417    1.2390 H       1  UNL1        0.0658
     31 H          -2.0773    2.5611   -2.3229 H       1  UNL1        0.0655
@<TRIPOS>BOND
     1     1     2    2
     2     2     3    1
     3     3     4    1
     4     3     5    2
     5     5     6    1
     6     6     7    1
     7     6     8    1
     8     6     9    1
     9     9    10   ar
    10    10    11   ar
    11    11    12   ar
    12    12    13   ar
    13    13    14    1
    14    13    15   ar
    15    10    16    1
    16    16    17    2
    17    17    18    1
    18    18    19    2
    19    19    20    1
    20    19     2    1
    21    17     5    1
    22    15     9   ar
    23     7    21    1
    24     7    22    1
    25     7    23    1
    26     8    24    1
    27     8    25    1
    28     8    26    1
    29    11    27    1
    30    12    28    1
    31    14    29    1
    32    15    30    1
    33    18    31    1
