@<TRIPOS>MOLECULE
*****
 45 47 0 0 0
SMALL
GASTEIGER

@<TRIPOS>ATOM
      1 O          -4.8530    1.4208   -1.3331 O.2     1  UNL1       -0.2831
      2 C          -4.0922    0.7600   -0.6345 C.ar    1  UNL1        0.2345
      3 C          -2.6031    0.8457   -0.7431 C.ar    1  UNL1        0.2105
      4 O          -2.0032    1.6948   -1.6628 O.3     1  UNL1       -0.4883
      5 C          -2.5339    1.5932   -2.9808 C.3     1  UNL1        0.0791
      6 C          -1.8681    0.1006    0.1088 C.ar    1  UNL1        0.1808
      7 C          -0.3907    0.1127    0.1100 C.ar    1  UNL1        0.0212
      8 C           0.3392    1.2966    0.2086 C.ar    1  UNL1       -0.0492
      9 C           1.7439    1.2771    0.2278 C.ar    1  UNL1       -0.0400
     10 C           2.4878    0.0867    0.1591 C.ar    1  UNL1        0.0297
     11 N           3.8787    0.0750    0.1781 N.pl3   1  UNL1       -0.3304
     12 C           4.6494   -1.1734    0.2436 C.3     1  UNL1        0.0093
     13 C           4.9123   -1.7280   -1.1492 C.3     1  UNL1       -0.0494
     14 C           4.6698    1.3116    0.1247 C.3     1  UNL1        0.0093
     15 C           4.9123    1.8660    1.5213 C.3     1  UNL1       -0.0494
     16 C           1.7261   -1.0910    0.0726 C.ar    1  UNL1       -0.0400
     17 C           0.3213   -1.0855    0.0510 C.ar    1  UNL1       -0.0492
     18 O          -2.3888   -0.7782    1.0463 O.2     1  UNL1       -0.4509
     19 C          -3.7468   -0.8923    1.1587 C.ar    1  UNL1        0.1395
     20 C          -4.2334   -1.7811    2.1180 C.ar    1  UNL1       -0.0186
     21 C          -5.6102   -1.9428    2.2837 C.ar    1  UNL1       -0.0582
     22 C          -6.4999   -1.2162    1.4912 C.ar    1  UNL1       -0.0609
     23 C          -6.0125   -0.3272    0.5321 C.ar    1  UNL1       -0.0473
     24 C          -4.6314   -0.1694    0.3695 C.ar    1  UNL1        0.0677
     25 H          -2.8019    0.5629   -3.2399 H       1  UNL1        0.0660
     26 H          -1.7575    1.9232   -3.6778 H       1  UNL1        0.0660
     27 H          -3.3901    2.2623   -3.1023 H       1  UNL1        0.0660
     28 H          -0.1704    2.2555    0.2742 H       1  UNL1        0.0625
     29 H           2.2358    2.2409    0.3120 H       1  UNL1        0.0636
     30 H           5.6161   -0.9846    0.7281 H       1  UNL1        0.0461
     31 H           4.1615   -1.9214    0.8785 H       1  UNL1        0.0461
     32 H           5.5050   -2.6458   -1.0844 H       1  UNL1        0.0245
     33 H           3.9821   -1.9618   -1.6757 H       1  UNL1        0.0245
     34 H           5.4671   -1.0088   -1.7607 H       1  UNL1        0.0245
     35 H           4.2070    2.0652   -0.5223 H       1  UNL1        0.0461
     36 H           5.6434    1.1066   -0.3389 H       1  UNL1        0.0461
     37 H           5.5200    2.7746    1.4666 H       1  UNL1        0.0245
     38 H           5.4436    1.1400    2.1457 H       1  UNL1        0.0245
     39 H           3.9751    2.1150    2.0280 H       1  UNL1        0.0245
     40 H           2.2045   -2.0630    0.0077 H       1  UNL1        0.0636
     41 H          -0.2042   -2.0352   -0.0191 H       1  UNL1        0.0625
     42 H          -3.5416   -2.3460    2.7379 H       1  UNL1        0.0654
     43 H          -5.9896   -2.6346    3.0323 H       1  UNL1        0.0619
     44 H          -7.5725   -1.3407    1.6210 H       1  UNL1        0.0618
     45 H          -6.7069    0.2401   -0.0842 H       1  UNL1        0.0626
@<TRIPOS>BOND
     1     1     2    2
     2     2     3   ar
     3     3     4    1
     4     4     5    1
     5     3     6   ar
     6     6     7    1
     7     7     8   ar
     8     8     9   ar
     9     9    10   ar
    10    10    11    1
    11    11    12    1
    12    12    13    1
    13    11    14    1
    14    14    15    1
    15    10    16   ar
    16    16    17   ar
    17     6    18   ar
    18    18    19   ar
    19    19    20   ar
    20    20    21   ar
    21    21    22   ar
    22    22    23   ar
    23    23    24   ar
    24    24     2   ar
    25    17     7   ar
    26    24    19   ar
    27     5    25    1
    28     5    26    1
    29     5    27    1
    30     8    28    1
    31     9    29    1
    32    12    30    1
    33    12    31    1
    34    13    32    1
    35    13    33    1
    36    13    34    1
    37    14    35    1
    38    14    36    1
    39    15    37    1
    40    15    38    1
    41    15    39    1
    42    16    40    1
    43    17    41    1
    44    20    42    1
    45    21    43    1
    46    22    44    1
    47    23    45    1
