@<TRIPOS>MOLECULE
*****
 34 35 0 0 0
SMALL
GASTEIGER

@<TRIPOS>ATOM
      1 O           3.3678   -0.3713    4.1403 O.2     1  UNL1       -0.2452
      2 C           2.9766   -0.2829    2.9820 C.ar    1  UNL1        0.3375
      3 C           3.9363   -0.2346    1.8680 C.ar    1  UNL1        0.0265
      4 C           3.5707   -0.1379    0.5813 C.ar    1  UNL1       -0.0330
      5 C           4.5854   -0.0917   -0.5220 C.3     1  UNL1       -0.0388
      6 C           2.1375   -0.0773    0.2703 C.ar    1  UNL1        0.0206
      7 C           1.6230    0.0248   -1.0194 C.ar    1  UNL1       -0.0491
      8 C           0.2334    0.0785   -1.2390 C.ar    1  UNL1       -0.0399
      9 C          -0.7088    0.0329   -0.1953 C.ar    1  UNL1        0.0332
     10 N          -2.0790    0.0863   -0.4263 N.pl3   1  UNL1       -0.3303
     11 C          -2.6406    0.3315   -1.7615 C.3     1  UNL1        0.0093
     12 C          -2.8192   -0.9719   -2.5268 C.3     1  UNL1       -0.0494
     13 C          -3.0598   -0.0939    0.6537 C.3     1  UNL1        0.0093
     14 C          -3.3730    1.2309    1.3346 C.3     1  UNL1       -0.0494
     15 C          -0.1665   -0.0710    1.0942 C.ar    1  UNL1        0.0024
     16 C           1.2179   -0.1232    1.3109 C.ar    1  UNL1        0.1411
     17 O           1.6339   -0.2241    2.6542 O.2     1  UNL1       -0.4221
     18 H           4.9770   -0.2835    2.1678 H       1  UNL1        0.0692
     19 H           4.5022    0.8422   -1.0881 H       1  UNL1        0.0278
     20 H           4.4531   -0.9352   -1.2078 H       1  UNL1        0.0278
     21 H           5.6094   -0.1460   -0.1357 H       1  UNL1        0.0278
     22 H           2.2762    0.0635   -1.8868 H       1  UNL1        0.0625
     23 H          -0.0864    0.1469   -2.2746 H       1  UNL1        0.0636
     24 H          -2.0356    1.0434   -2.3340 H       1  UNL1        0.0461
     25 H          -3.6222    0.8134   -1.6661 H       1  UNL1        0.0461
     26 H          -3.2574   -0.7752   -3.5103 H       1  UNL1        0.0245
     27 H          -3.4851   -1.6552   -1.9895 H       1  UNL1        0.0245
     28 H          -1.8665   -1.4883   -2.6773 H       1  UNL1        0.0245
     29 H          -2.7305   -0.8423    1.3831 H       1  UNL1        0.0461
     30 H          -3.9925   -0.4989    0.2405 H       1  UNL1        0.0461
     31 H          -2.4826    1.6734    1.7913 H       1  UNL1        0.0245
     32 H          -3.7731    1.9562    0.6184 H       1  UNL1        0.0245
     33 H          -4.1199    1.0839    2.1210 H       1  UNL1        0.0245
     34 H          -0.8014   -0.1033    1.9731 H       1  UNL1        0.0673
@<TRIPOS>BOND
     1     1     2    2
     2     2     3   ar
     3     3     4   ar
     4     4     5    1
     5     4     6   ar
     6     6     7   ar
     7     7     8   ar
     8     8     9   ar
     9     9    10    1
    10    10    11    1
    11    11    12    1
    12    10    13    1
    13    13    14    1
    14     9    15   ar
    15    15    16   ar
    16    16    17   ar
    17    17     2   ar
    18    16     6   ar
    19     3    18    1
    20     5    19    1
    21     5    20    1
    22     5    21    1
    23     7    22    1
    24     8    23    1
    25    11    24    1
    26    11    25    1
    27    12    26    1
    28    12    27    1
    29    12    28    1
    30    13    29    1
    31    13    30    1
    32    14    31    1
    33    14    32    1
    34    14    33    1
    35    15    34    1
