@<TRIPOS>MOLECULE
*****
 22 23 0 0 0
SMALL
GASTEIGER

@<TRIPOS>ATOM
      1 O          -1.8764    3.6142   -0.5728 O.2     1  UNL1       -0.2452
      2 C          -1.4064    2.5017   -0.3628 C.ar    1  UNL1        0.3375
      3 C          -2.2733    1.3869    0.0494 C.ar    1  UNL1        0.0265
      4 C          -1.8208    0.1485    0.2946 C.ar    1  UNL1       -0.0330
      5 C          -2.7466   -0.9554    0.7118 C.3     1  UNL1       -0.0388
      6 C          -0.3824   -0.1089    0.1455 C.ar    1  UNL1        0.0206
      7 C           0.2083   -1.3593    0.3518 C.ar    1  UNL1       -0.0491
      8 C           1.5908   -1.5329    0.1905 C.ar    1  UNL1       -0.0403
      9 C           2.4196   -0.4578   -0.1390 C.ar    1  UNL1        0.0281
     10 N           3.7740   -0.6701   -0.4144 N.pl3   1  UNL1       -0.3579
     11 C           1.8303    0.7764   -0.4041 C.ar    1  UNL1        0.0020
     12 C           0.4522    0.9404   -0.2402 C.ar    1  UNL1        0.1410
     13 O          -0.0568    2.2290   -0.4958 O.2     1  UNL1       -0.4221
     14 H          -3.3227    1.6438    0.1408 H       1  UNL1        0.0692
     15 H          -3.7837   -0.6099    0.7884 H       1  UNL1        0.0278
     16 H          -2.4640   -1.3500    1.6936 H       1  UNL1        0.0278
     17 H          -2.7309   -1.7727   -0.0171 H       1  UNL1        0.0278
     18 H          -0.3861   -2.2262    0.6269 H       1  UNL1        0.0625
     19 H           2.0147   -2.5252    0.3261 H       1  UNL1        0.0636
     20 H           4.1818   -1.4558    0.0825 H       1  UNL1        0.1423
     21 H           4.3465    0.1662   -0.3484 H       1  UNL1        0.1423
     22 H           2.4319    1.6171   -0.7366 H       1  UNL1        0.0673
@<TRIPOS>BOND
     1     1     2    2
     2     2     3   ar
     3     3     4   ar
     4     4     5    1
     5     4     6   ar
     6     6     7   ar
     7     7     8   ar
     8     8     9   ar
     9     9    10    1
    10     9    11   ar
    11    11    12   ar
    12    12    13   ar
    13    13     2   ar
    14    12     6   ar
    15     3    14    1
    16     5    15    1
    17     5    16    1
    18     5    17    1
    19     7    18    1
    20     8    19    1
    21    10    20    1
    22    10    21    1
    23    11    22    1
