@<TRIPOS>MOLECULE
*****
 44 48 0 0 0
SMALL
GASTEIGER

@<TRIPOS>ATOM
      1 O           6.6314   -1.4449   -1.3042 O.2     1  UNL1       -0.2873
      2 C           6.0957   -0.6690   -0.5238 C.2     1  UNL1        0.1869
      3 C           6.9155    0.1775    0.3647 C.2     1  UNL1       -0.0107
      4 C           6.3621    1.0360    1.2241 C.2     1  UNL1       -0.0107
      5 C           4.8983    1.1902    1.3361 C.2     1  UNL1        0.1869
      6 O           4.4228    1.9936    2.1274 O.2     1  UNL1       -0.2873
      7 C           4.0493    0.3520    0.4662 C.ar    1  UNL1        0.0330
      8 C           2.6534    0.4622    0.5481 C.ar    1  UNL1       -0.0425
      9 C           1.8173   -0.3192   -0.2682 C.ar    1  UNL1       -0.0172
     10 C           0.3516   -0.2038   -0.1836 C.ar    1  UNL1       -0.0172
     11 C          -0.4570   -1.3352   -0.0164 C.ar    1  UNL1       -0.0491
     12 C          -1.8586   -1.2348    0.0661 C.ar    1  UNL1       -0.0255
     13 C          -2.4944    0.0177   -0.0437 C.ar    1  UNL1        0.0361
     14 C          -1.6844    1.1615   -0.1883 C.ar    1  UNL1       -0.0255
     15 C          -0.2843    1.0412   -0.2682 C.ar    1  UNL1       -0.0491
     16 C          -2.2959    2.5342   -0.3192 C.3     1  UNL1       -0.0245
     17 C          -3.7380    2.5635    0.1635 C.3     1  UNL1       -0.0332
     18 C          -4.4875    1.3768   -0.4186 C.3     1  UNL1        0.0125
     19 N          -3.8891    0.1293    0.0525 N.pl3   1  UNL1       -0.3294
     20 C          -4.6669   -1.0905   -0.1548 C.3     1  UNL1        0.0125
     21 C          -4.0860   -2.2225    0.6760 C.3     1  UNL1       -0.0332
     22 C          -2.6620   -2.5022    0.2205 C.3     1  UNL1       -0.0245
     23 C           2.4221   -1.2136   -1.1688 C.ar    1  UNL1       -0.0533
     24 C           3.8134   -1.3277   -1.2523 C.ar    1  UNL1       -0.0497
     25 C           4.6278   -0.5427   -0.4316 C.ar    1  UNL1        0.0325
     26 H           7.9902    0.0635    0.2800 H       1  UNL1        0.0657
     27 H           6.9616    1.6598    1.8773 H       1  UNL1        0.0657
     28 H           2.2140    1.1563    1.2649 H       1  UNL1        0.0631
     29 H           0.0043   -2.3179    0.0660 H       1  UNL1        0.0627
     30 H           0.3121    1.9414   -0.4089 H       1  UNL1        0.0627
     31 H          -2.2547    2.8291   -1.3752 H       1  UNL1        0.0314
     32 H          -1.7130    3.2643    0.2546 H       1  UNL1        0.0314
     33 H          -3.7647    2.5176    1.2600 H       1  UNL1        0.0283
     34 H          -4.2140    3.5039   -0.1350 H       1  UNL1        0.0283
     35 H          -4.4839    1.4097   -1.5157 H       1  UNL1        0.0464
     36 H          -5.5338    1.4286   -0.0950 H       1  UNL1        0.0464
     37 H          -5.7048   -0.9228    0.1562 H       1  UNL1        0.0464
     38 H          -4.6845   -1.3540   -1.2201 H       1  UNL1        0.0464
     39 H          -4.6961   -3.1268    0.5751 H       1  UNL1        0.0283
     40 H          -4.0894   -1.9431    1.7376 H       1  UNL1        0.0283
     41 H          -2.1806   -3.1694    0.9452 H       1  UNL1        0.0314
     42 H          -2.6795   -3.0173   -0.7480 H       1  UNL1        0.0314
     43 H           1.8060   -1.8254   -1.8268 H       1  UNL1        0.0624
     44 H           4.2544   -2.0272   -1.9605 H       1  UNL1        0.0625
@<TRIPOS>BOND
     1     1     2    2
     2     2     3    1
     3     3     4    2
     4     4     5    1
     5     5     6    2
     6     5     7    1
     7     7     8   ar
     8     8     9   ar
     9     9    10    1
    10    10    11   ar
    11    11    12   ar
    12    12    13   ar
    13    13    14   ar
    14    14    15   ar
    15    14    16    1
    16    16    17    1
    17    17    18    1
    18    18    19    1
    19    19    20    1
    20    20    21    1
    21    21    22    1
    22     9    23   ar
    23    23    24   ar
    24    24    25   ar
    25    25     2    1
    26    25     7   ar
    27    15    10   ar
    28    22    12    1
    29    19    13    1
    30     3    26    1
    31     4    27    1
    32     8    28    1
    33    11    29    1
    34    15    30    1
    35    16    31    1
    36    16    32    1
    37    17    33    1
    38    17    34    1
    39    18    35    1
    40    18    36    1
    41    20    37    1
    42    20    38    1
    43    21    39    1
    44    21    40    1
    45    22    41    1
    46    22    42    1
    47    23    43    1
    48    24    44    1
