@<TRIPOS>MOLECULE
*****
 35 39 0 0 0
SMALL
GASTEIGER

@<TRIPOS>ATOM
      1 O          -5.7560   -2.0878    1.6855 O.2     1  UNL1       -0.2873
      2 C          -5.3236   -1.3244    0.8324 C.2     1  UNL1        0.1869
      3 C          -6.2451   -0.6621   -0.1116 C.2     1  UNL1       -0.0107
      4 C          -5.8042    0.1756   -1.0531 C.2     1  UNL1       -0.0107
      5 C          -4.3697    0.4880   -1.2045 C.2     1  UNL1        0.1869
      6 O          -3.9924    1.2599   -2.0765 O.2     1  UNL1       -0.2873
      7 C          -3.4214   -0.1582   -0.2757 C.ar    1  UNL1        0.0331
      8 C          -2.0486    0.1167   -0.3914 C.ar    1  UNL1       -0.0411
      9 C          -1.1174   -0.4788    0.4735 C.ar    1  UNL1       -0.0010
     10 C           0.3262   -0.2047    0.3697 C.ar    1  UNL1        0.0475
     11 C           1.3934   -0.6855    1.1177 C.ar    1  UNL1       -0.0287
     12 C           2.6016   -0.1207    0.6263 C.ar    1  UNL1        0.0010
     13 C           3.9575   -0.2376    0.9805 C.ar    1  UNL1       -0.0418
     14 C           4.9379    0.4744    0.2757 C.ar    1  UNL1        0.0208
     15 C           6.3498    0.6073    0.3374 C.ar    1  UNL1       -0.0161
     16 C           6.7021    1.4836   -0.6644 C.ar    1  UNL1        0.0931
     17 O           5.6021    1.9035   -1.3440 O.2     1  UNL1       -0.4629
     18 C           4.5313    1.2898   -0.7720 C.ar    1  UNL1        0.1368
     19 C           3.2048    1.4295   -1.1492 C.ar    1  UNL1        0.0051
     20 C           2.2503    0.7107   -0.4321 C.ar    1  UNL1        0.0505
     21 N           0.8846    0.6446   -0.5671 N.ar    1  UNL1       -0.3540
     22 C          -1.6045   -1.3568    1.4563 C.ar    1  UNL1       -0.0519
     23 C          -2.9719   -1.6332    1.5748 C.ar    1  UNL1       -0.0496
     24 C          -3.8826   -1.0312    0.7052 C.ar    1  UNL1        0.0325
     25 H          -7.2979   -0.8939    0.0025 H       1  UNL1        0.0657
     26 H          -6.4787    0.6633   -1.7476 H       1  UNL1        0.0657
     27 H          -1.7306    0.8041   -1.1709 H       1  UNL1        0.0631
     28 H           1.3256   -1.3798    1.9447 H       1  UNL1        0.0645
     29 H           4.2452   -0.8836    1.8052 H       1  UNL1        0.0631
     30 H           7.0267    0.1241    1.0270 H       1  UNL1        0.0655
     31 H           7.6434    1.8902   -1.0069 H       1  UNL1        0.1029
     32 H           2.9325    2.0781   -1.9746 H       1  UNL1        0.0675
     33 H           0.3720    1.1587   -1.2680 H       1  UNL1        0.1659
     34 H          -0.9255   -1.8450    2.1520 H       1  UNL1        0.0624
     35 H          -3.3169   -2.3185    2.3474 H       1  UNL1        0.0625
@<TRIPOS>BOND
     1     1     2    2
     2     2     3    1
     3     3     4    2
     4     4     5    1
     5     5     6    2
     6     5     7    1
     7     7     8   ar
     8     8     9   ar
     9     9    10    1
    10    10    11   ar
    11    11    12   ar
    12    12    13   ar
    13    13    14   ar
    14    14    15   ar
    15    15    16   ar
    16    16    17   ar
    17    17    18   ar
    18    18    19   ar
    19    19    20   ar
    20    20    21   ar
    21     9    22   ar
    22    22    23   ar
    23    23    24   ar
    24    24     2    1
    25    24     7   ar
    26    21    10   ar
    27    20    12   ar
    28    18    14   ar
    29     3    25    1
    30     4    26    1
    31     8    27    1
    32    11    28    1
    33    13    29    1
    34    15    30    1
    35    16    31    1
    36    19    32    1
    37    21    33    1
    38    22    34    1
    39    23    35    1
