@<TRIPOS>MOLECULE
*****
 41 47 0 0 0
SMALL
GASTEIGER

@<TRIPOS>ATOM
      1 SI          5.7164    0.5504   -0.4925 Si      1  UNL1        0.0000
      2 C           6.6526   -1.0509   -0.3565 C.2     1  UNL1        0.0000
      3 C           5.8217   -2.0905   -0.1772 C.2     1  UNL1        0.0000
      4 C           4.4009   -1.7140   -0.1332 C.ar    1  UNL1        0.0000
      5 N           3.4963   -2.6773    0.0415 N.ar    1  UNL1        0.0000
      6 C           2.2023   -2.2695    0.0740 C.ar    1  UNL1        0.0000
      7 C           1.7017   -0.9560   -0.0557 C.ar    1  UNL1        0.0000
      8 C           0.2498   -0.6772    0.0006 C.ar    1  UNL1        0.0000
      9 C          -0.7312   -1.6833    0.1863 C.ar    1  UNL1        0.0000
     10 C          -2.1124   -1.4245    0.2397 C.ar    1  UNL1        0.0000
     11 C          -2.6185   -0.1318    0.1127 C.ar    1  UNL1        0.0000
     12 C          -1.6883    0.8959   -0.0723 C.ar    1  UNL1        0.0000
     13 C          -0.2864    0.6388   -0.1275 C.ar    1  UNL1        0.0000
     14 C           0.7161    1.6256   -0.3091 C.ar    1  UNL1        0.0000
     15 C           0.4302    2.9665   -0.4533 C.ar    1  UNL1        0.0000
     16 S           1.8397    3.9098   -0.6566 S.2     1  UNL1        0.0000
     17 C           2.8444    2.5247   -0.5511 C.ar    1  UNL1        0.0000
     18 C           2.1387    1.3564   -0.3651 C.ar    1  UNL1        0.0000
     19 C           2.7226    0.0499   -0.2427 C.ar    1  UNL1        0.0000
     20 C           4.0893   -0.3534   -0.2796 C.ar    1  UNL1        0.0000
     21 C          -4.0551    0.1433    0.1515 C.ar    1  UNL1        0.0000
     22 C          -4.7334    0.9267   -0.7970 C.ar    1  UNL1        0.0000
     23 N          -6.0690    1.2485   -0.8418 N.ar    1  UNL1        0.0000
     24 C          -6.9245    0.7899    0.1153 C.ar    1  UNL1        0.0000
     25 C          -6.3982   -0.0156    1.1430 C.ar    1  UNL1        0.0000
     26 N          -7.0844   -0.5521    2.1650 N.ar    1  UNL1        0.0000
     27 S          -5.9832   -1.3908    3.0789 S.2     1  UNL1        0.0000
     28 N          -4.5945   -1.1179    2.2165 N.ar    1  UNL1        0.0000
     29 C          -4.9258   -0.3481    1.1624 C.ar    1  UNL1        0.0000
     30 H           5.8495    1.1727   -1.8328 H       1  UNL1        0.0000
     31 H           6.0058    1.4736    0.6322 H       1  UNL1        0.0000
     32 H           7.7289   -1.0946   -0.4191 H       1  UNL1        0.0000
     33 H           6.1178   -3.1245   -0.0696 H       1  UNL1        0.0000
     34 H           1.5380   -3.1160    0.2205 H       1  UNL1        0.0000
     35 H          -0.4532   -2.7279    0.3004 H       1  UNL1        0.0000
     36 H          -2.7876   -2.2677    0.3832 H       1  UNL1        0.0000
     37 H          -2.0510    1.9169   -0.1601 H       1  UNL1        0.0000
     38 H          -0.5244    3.4717   -0.4534 H       1  UNL1        0.0000
     39 H           3.9011    2.7027   -0.6383 H       1  UNL1        0.0000
     40 H          -4.1757    1.3517   -1.6337 H       1  UNL1        0.0000
     41 H          -7.9672    1.0679    0.0393 H       1  UNL1        0.0000
@<TRIPOS>BOND
     1     1     2    1
     2     2     3    2
     3     3     4    1
     4     4     5   ar
     5     5     6   ar
     6     6     7   ar
     7     7     8   ar
     8     8     9   ar
     9     9    10   ar
    10    10    11   ar
    11    11    12   ar
    12    12    13   ar
    13    13    14   ar
    14    14    15   ar
    15    15    16   ar
    16    16    17   ar
    17    17    18   ar
    18    18    19   ar
    19    19    20   ar
    20    11    21    1
    21    21    22   ar
    22    22    23   ar
    23    23    24   ar
    24    24    25   ar
    25    25    26   ar
    26    26    27   ar
    27    27    28   ar
    28    28    29   ar
    29    20     1    1
    30    29    21   ar
    31    20     4   ar
    32    29    25   ar
    33    19     7   ar
    34    13     8   ar
    35    18    14   ar
    36     1    30    1
    37     1    31    1
    38     2    32    1
    39     3    33    1
    40     6    34    1
    41     9    35    1
    42    10    36    1
    43    12    37    1
    44    15    38    1
    45    17    39    1
    46    22    40    1
    47    24    41    1
