@<TRIPOS>MOLECULE
*****
 34 38 0 0 0
SMALL
GASTEIGER

@<TRIPOS>ATOM
      1 O           5.6551    2.4238    0.2475 O.2     1  UNL1       -0.2873
      2 C           5.2660    1.3091   -0.0743 C.2     1  UNL1        0.1869
      3 C           6.2324    0.2738   -0.4901 C.2     1  UNL1       -0.0107
      4 C           5.8400   -0.9514   -0.8469 C.2     1  UNL1       -0.0107
      5 C           4.4168   -1.3423   -0.8466 C.2     1  UNL1        0.1869
      6 O           4.0860   -2.4729   -1.1787 O.2     1  UNL1       -0.2873
      7 C           3.4239   -0.3299   -0.4359 C.ar    1  UNL1        0.0331
      8 C           2.0611   -0.6659   -0.4234 C.ar    1  UNL1       -0.0396
      9 C           1.0935    0.2741   -0.0380 C.ar    1  UNL1        0.0180
     10 C          -0.3244   -0.0815   -0.0269 C.ar    1  UNL1        0.1363
     11 C          -1.0366   -1.2284   -0.3306 C.ar    1  UNL1       -0.0080
     12 C          -2.4086   -0.9352   -0.1163 C.ar    1  UNL1        0.0243
     13 C          -3.6207   -1.6275   -0.2308 C.ar    1  UNL1       -0.0080
     14 C          -4.7972   -0.9572    0.0868 C.ar    1  UNL1        0.1356
     15 O          -6.0544   -1.4746    0.0321 O.2     1  UNL1       -0.4629
     16 C          -6.9032   -0.4871    0.4222 C.ar    1  UNL1        0.0931
     17 C          -6.2072    0.6608    0.7277 C.ar    1  UNL1       -0.0160
     18 C          -4.8357    0.3666    0.5131 C.ar    1  UNL1        0.0236
     19 C          -3.6227    1.0578    0.6272 C.ar    1  UNL1       -0.0080
     20 C          -2.4469    0.3864    0.3093 C.ar    1  UNL1        0.1365
     21 O          -1.1913    0.9030    0.3639 O.2     1  UNL1       -0.4548
     22 C           1.5258    1.5578    0.3341 C.ar    1  UNL1       -0.0504
     23 C           2.8836    1.8959    0.3226 C.ar    1  UNL1       -0.0496
     24 C           3.8346    0.9482   -0.0637 C.ar    1  UNL1        0.0325
     25 H           7.2769    0.5638   -0.4893 H       1  UNL1        0.0657
     26 H           6.5477   -1.7135   -1.1526 H       1  UNL1        0.0657
     27 H           1.7653   -1.6713   -0.7185 H       1  UNL1        0.0632
     28 H          -0.6230   -2.1684   -0.6673 H       1  UNL1        0.0661
     29 H          -3.6517   -2.6614   -0.5584 H       1  UNL1        0.0661
     30 H          -7.9516   -0.7514    0.4300 H       1  UNL1        0.1029
     31 H          -6.6361    1.5940    1.0635 H       1  UNL1        0.0655
     32 H          -3.5921    2.0915    0.9547 H       1  UNL1        0.0661
     33 H           0.8041    2.3146    0.6393 H       1  UNL1        0.0625
     34 H           3.1903    2.8987    0.6160 H       1  UNL1        0.0625
@<TRIPOS>BOND
     1     1     2    2
     2     2     3    1
     3     3     4    2
     4     4     5    1
     5     5     6    2
     6     5     7    1
     7     7     8   ar
     8     8     9   ar
     9     9    10    1
    10    10    11   ar
    11    11    12   ar
    12    12    13   ar
    13    13    14   ar
    14    14    15   ar
    15    15    16   ar
    16    16    17   ar
    17    17    18   ar
    18    18    19   ar
    19    19    20   ar
    20    20    21   ar
    21     9    22   ar
    22    22    23   ar
    23    23    24   ar
    24    24     2    1
    25    24     7   ar
    26    21    10   ar
    27    20    12   ar
    28    18    14   ar
    29     3    25    1
    30     4    26    1
    31     8    27    1
    32    11    28    1
    33    13    29    1
    34    16    30    1
    35    17    31    1
    36    19    32    1
    37    22    33    1
    38    23    34    1
