@<TRIPOS>MOLECULE
*****
 32 35 0 0 0
SMALL
GASTEIGER

@<TRIPOS>ATOM
      1 O          -5.2663    1.2394   -1.6168 O.2     1  UNL1       -0.2873
      2 C          -4.7553    0.5129   -0.7747 C.2     1  UNL1        0.1869
      3 C          -5.6005   -0.2906    0.1296 C.2     1  UNL1       -0.0107
      4 C          -5.0714   -1.0915    1.0574 C.2     1  UNL1       -0.0107
      5 C          -3.6113   -1.2206    1.2332 C.2     1  UNL1        0.1869
      6 O          -3.1580   -1.9638    2.0933 O.2     1  UNL1       -0.2873
      7 C          -2.7381   -0.4291    0.3433 C.ar    1  UNL1        0.0331
      8 C          -1.3441   -0.5231    0.4777 C.ar    1  UNL1       -0.0411
      9 C          -0.4828    0.2148   -0.3512 C.ar    1  UNL1       -0.0010
     10 C           0.9771    0.1008   -0.1925 C.ar    1  UNL1        0.0475
     11 C           1.7332   -0.6579    0.6912 C.ar    1  UNL1       -0.0287
     12 C           3.1133   -0.4215    0.4470 C.ar    1  UNL1        0.0003
     13 C           4.3079   -0.8999    1.0180 C.ar    1  UNL1       -0.0526
     14 C           5.5338   -0.4442    0.5194 C.ar    1  UNL1       -0.0611
     15 C           5.5776    0.4721   -0.5296 C.ar    1  UNL1       -0.0598
     16 C           4.4028    0.9595   -1.1106 C.ar    1  UNL1       -0.0378
     17 C           3.1871    0.4917   -0.5980 C.ar    1  UNL1        0.0469
     18 N           1.8945    0.7887   -0.9630 N.ar    1  UNL1       -0.3541
     19 C          -1.0616    1.0509   -1.3201 C.ar    1  UNL1       -0.0519
     20 C          -2.4520    1.1473   -1.4573 C.ar    1  UNL1       -0.0496
     21 C          -3.2911    0.4053   -0.6233 C.ar    1  UNL1        0.0325
     22 H          -6.6722   -0.1943   -0.0013 H       1  UNL1        0.0657
     23 H          -5.6890   -1.6833    1.7234 H       1  UNL1        0.0657
     24 H          -0.9401   -1.1839    1.2424 H       1  UNL1        0.0631
     25 H           1.3441   -1.3255    1.4487 H       1  UNL1        0.0645
     26 H           4.2809   -1.6140    1.8356 H       1  UNL1        0.0624
     27 H           6.4595   -0.8102    0.9565 H       1  UNL1        0.0618
     28 H           6.5404    0.8140   -0.9028 H       1  UNL1        0.0618
     29 H           4.4407    1.6728   -1.9271 H       1  UNL1        0.0638
     30 H           1.6658    1.4320   -1.7045 H       1  UNL1        0.1659
     31 H          -0.4514    1.6476   -1.9920 H       1  UNL1        0.0624
     32 H          -2.8734    1.8036   -2.2173 H       1  UNL1        0.0625
@<TRIPOS>BOND
     1     1     2    2
     2     2     3    1
     3     3     4    2
     4     4     5    1
     5     5     6    2
     6     5     7    1
     7     7     8   ar
     8     8     9   ar
     9     9    10    1
    10    10    11   ar
    11    11    12   ar
    12    12    13   ar
    13    13    14   ar
    14    14    15   ar
    15    15    16   ar
    16    16    17   ar
    17    17    18   ar
    18     9    19   ar
    19    19    20   ar
    20    20    21   ar
    21    21     2    1
    22    21     7   ar
    23    18    10   ar
    24    17    12   ar
    25     3    22    1
    26     4    23    1
    27     8    24    1
    28    11    25    1
    29    13    26    1
    30    14    27    1
    31    15    28    1
    32    16    29    1
    33    18    30    1
    34    19    31    1
    35    20    32    1
