@<TRIPOS>MOLECULE
*****
 31 34 0 0 0
SMALL
GASTEIGER

@<TRIPOS>ATOM
      1 O           5.0977   -2.0446   -1.2811 O.2     1  UNL1       -0.2873
      2 C           4.6907   -1.0136   -0.7622 C.2     1  UNL1        0.1869
      3 C           5.6421    0.0167   -0.3033 C.2     1  UNL1       -0.0107
      4 C           5.2271    1.1505    0.2660 C.2     1  UNL1       -0.0107
      5 C           3.7939    1.4402    0.4696 C.2     1  UNL1        0.1869
      6 O           3.4473    2.4896    0.9948 O.2     1  UNL1       -0.2873
      7 C           2.8154    0.4285    0.0209 C.ar    1  UNL1        0.0330
      8 C           1.4413    0.6665    0.1969 C.ar    1  UNL1       -0.0420
      9 C           0.4761   -0.2709   -0.2162 C.ar    1  UNL1       -0.0106
     10 C          -0.9828   -0.0493   -0.0445 C.ar    1  UNL1        0.0205
     11 C          -2.0388   -0.8740   -0.3990 C.ar    1  UNL1       -0.0392
     12 C          -3.3364   -0.3447   -0.0847 C.ar    1  UNL1       -0.0102
     13 C          -4.6280   -0.8866   -0.2914 C.ar    1  UNL1       -0.0535
     14 C          -5.7647   -0.1751    0.1043 C.ar    1  UNL1       -0.0611
     15 C          -5.6372    1.0701    0.7038 C.ar    1  UNL1       -0.0607
     16 C          -4.3750    1.6278    0.9195 C.ar    1  UNL1       -0.0474
     17 C          -3.2338    0.9060    0.5186 C.ar    1  UNL1        0.0199
     18 S          -1.5947    1.3845    0.6792 S.2     1  UNL1       -0.0882
     19 C           0.9460   -1.4562   -0.8129 C.ar    1  UNL1       -0.0528
     20 C           2.3141   -1.6981   -0.9905 C.ar    1  UNL1       -0.0497
     21 C           3.2505   -0.7523   -0.5720 C.ar    1  UNL1        0.0325
     22 H           6.6938   -0.1982   -0.4539 H       1  UNL1        0.0657
     23 H           5.9228    1.9099    0.6044 H       1  UNL1        0.0657
     24 H           1.1452    1.6037    0.6654 H       1  UNL1        0.0631
     25 H          -1.9137   -1.8386   -0.8732 H       1  UNL1        0.0635
     26 H          -4.7402   -1.8610   -0.7601 H       1  UNL1        0.0624
     27 H          -6.7517   -0.6009   -0.0594 H       1  UNL1        0.0618
     28 H          -6.5255    1.6182    1.0092 H       1  UNL1        0.0618
     29 H          -4.2768    2.6025    1.3889 H       1  UNL1        0.0629
     30 H           0.2555   -2.2234   -1.1554 H       1  UNL1        0.0624
     31 H           2.6398   -2.6271   -1.4563 H       1  UNL1        0.0625
@<TRIPOS>BOND
     1     1     2    2
     2     2     3    1
     3     3     4    2
     4     4     5    1
     5     5     6    2
     6     5     7    1
     7     7     8   ar
     8     8     9   ar
     9     9    10    1
    10    10    11   ar
    11    11    12   ar
    12    12    13   ar
    13    13    14   ar
    14    14    15   ar
    15    15    16   ar
    16    16    17   ar
    17    17    18   ar
    18     9    19   ar
    19    19    20   ar
    20    20    21   ar
    21    21     2    1
    22    21     7   ar
    23    18    10   ar
    24    17    12   ar
    25     3    22    1
    26     4    23    1
    27     8    24    1
    28    11    25    1
    29    13    26    1
    30    14    27    1
    31    15    28    1
    32    16    29    1
    33    19    30    1
    34    20    31    1
