@<TRIPOS>MOLECULE
*****
 33 37 0 0 0
SMALL
GASTEIGER

@<TRIPOS>ATOM
      1 O          -5.9181    0.7170   -0.9913 O.2     1  UNL1       -0.2873
      2 C          -5.2651    0.1096   -0.1533 C.2     1  UNL1        0.1869
      3 C          -5.9429   -0.6633    0.9055 C.2     1  UNL1       -0.0107
      4 C          -5.2562   -1.3353    1.8325 C.2     1  UNL1       -0.0107
      5 C          -3.7802   -1.3446    1.8526 C.2     1  UNL1        0.1869
      6 O          -3.1789   -1.9703    2.7155 O.2     1  UNL1       -0.2873
      7 C          -3.0721   -0.5806    0.8061 C.ar    1  UNL1        0.0331
      8 C          -1.6683   -0.5641    0.7904 C.ar    1  UNL1       -0.0411
      9 C          -0.9614    0.1517   -0.1898 C.ar    1  UNL1       -0.0009
     10 C           0.5116    0.1557   -0.1880 C.ar    1  UNL1        0.0501
     11 C           1.4172   -0.4665    0.6718 C.ar    1  UNL1       -0.0087
     12 C           2.7274   -0.1544    0.2494 C.ar    1  UNL1        0.1089
     13 N           3.9439   -0.5085    0.7421 N.ar    1  UNL1       -0.2387
     14 C           5.0057   -0.0052    0.0556 C.ar    1  UNL1        0.1293
     15 C           6.3965   -0.1380    0.2450 C.ar    1  UNL1        0.0039
     16 C           6.9860    0.5967   -0.7619 C.ar    1  UNL1        0.0966
     17 O           6.0462    1.1752   -1.5618 O.2     1  UNL1       -0.4439
     18 C           4.8335    0.8086   -1.0639 C.ar    1  UNL1        0.2478
     19 N           3.6380    1.1739   -1.5720 N.ar    1  UNL1       -0.1914
     20 C           2.6111    0.6580   -0.8680 C.ar    1  UNL1        0.1609
     21 N           1.2822    0.8358   -1.1190 N.ar    1  UNL1       -0.3377
     22 C          -1.7040    0.8514   -1.1551 C.ar    1  UNL1       -0.0519
     23 C          -3.1045    0.8371   -1.1424 C.ar    1  UNL1       -0.0496
     24 C          -3.7892    0.1192   -0.1593 C.ar    1  UNL1        0.0325
     25 H          -7.0267   -0.6548    0.8884 H       1  UNL1        0.0657
     26 H          -5.7506   -1.9041    2.6118 H       1  UNL1        0.0657
     27 H          -1.1358   -1.1215    1.5591 H       1  UNL1        0.0631
     28 H           1.1728   -1.0869    1.5233 H       1  UNL1        0.0661
     29 H           6.9020   -0.6979    1.0172 H       1  UNL1        0.0671
     30 H           8.0126    0.7995   -1.0354 H       1  UNL1        0.1031
     31 H           0.9421    1.3933   -1.8870 H       1  UNL1        0.1674
     32 H          -1.2193    1.4247   -1.9407 H       1  UNL1        0.0624
     33 H          -3.6552    1.3886   -1.9032 H       1  UNL1        0.0625
@<TRIPOS>BOND
     1     1     2    2
     2     2     3    1
     3     3     4    2
     4     4     5    1
     5     5     6    2
     6     5     7    1
     7     7     8   ar
     8     8     9   ar
     9     9    10    1
    10    10    11   ar
    11    11    12   ar
    12    12    13   ar
    13    13    14   ar
    14    14    15   ar
    15    15    16   ar
    16    16    17   ar
    17    17    18   ar
    18    18    19   ar
    19    19    20   ar
    20    20    21   ar
    21     9    22   ar
    22    22    23   ar
    23    23    24   ar
    24    24     2    1
    25    24     7   ar
    26    21    10   ar
    27    20    12   ar
    28    18    14   ar
    29     3    25    1
    30     4    26    1
    31     8    27    1
    32    11    28    1
    33    15    29    1
    34    16    30    1
    35    21    31    1
    36    22    32    1
    37    23    33    1
