@<TRIPOS>MOLECULE
*****
 30 33 0 0 0
SMALL
GASTEIGER

@<TRIPOS>ATOM
      1 O          -4.8078    1.3413    1.3391 O.2     1  UNL1       -0.2873
      2 C          -4.2683    0.5510    0.5761 C.2     1  UNL1        0.1869
      3 C          -5.0827   -0.3567   -0.2551 C.2     1  UNL1       -0.0107
      4 C          -4.5239   -1.2255   -1.1008 C.2     1  UNL1       -0.0107
      5 C          -3.0595   -1.3297   -1.2541 C.2     1  UNL1        0.1869
      6 O          -2.5776   -2.1336   -2.0408 O.2     1  UNL1       -0.2873
      7 C          -2.2159   -0.4391   -0.4326 C.ar    1  UNL1        0.0330
      8 C          -0.8194   -0.5098   -0.5464 C.ar    1  UNL1       -0.0425
      9 C           0.0109    0.3258    0.2203 C.ar    1  UNL1       -0.0171
     10 C           1.4775    0.2523    0.1021 C.ar    1  UNL1       -0.0157
     11 C           2.2358    1.4091   -0.1713 C.ar    1  UNL1       -0.0519
     12 C           3.6335    1.3847   -0.2909 C.ar    1  UNL1       -0.0342
     13 C           4.2435    0.1439   -0.1227 C.ar    1  UNL1        0.0858
     14 N           5.5424   -0.2786   -0.1627 N.ar    1  UNL1       -0.2571
     15 N           5.6485   -1.5973    0.0675 N.ar    1  UNL1       -0.0673
     16 N           4.4218   -2.0670    0.2595 N.ar    1  UNL1       -0.1297
     17 C           3.5437   -1.0224    0.1471 C.ar    1  UNL1        0.1130
     18 C           2.1467   -0.9786    0.2611 C.ar    1  UNL1       -0.0247
     19 C          -0.5985    1.2328    1.1047 C.ar    1  UNL1       -0.0533
     20 C          -1.9903    1.3060    1.2208 C.ar    1  UNL1       -0.0497
     21 C          -2.7999    0.4676    0.4493 C.ar    1  UNL1        0.0325
     22 H          -6.1578   -0.2781   -0.1412 H       1  UNL1        0.0657
     23 H          -5.1193   -1.8931   -1.7132 H       1  UNL1        0.0657
     24 H          -0.3773   -1.2175   -1.2482 H       1  UNL1        0.0631
     25 H           1.7277    2.3639   -0.3093 H       1  UNL1        0.0624
     26 H           4.1978    2.2856   -0.5058 H       1  UNL1        0.0639
     27 H           6.3850    0.2553   -0.3346 H       1  UNL1        0.1907
     28 H           1.6063   -1.8941    0.4803 H       1  UNL1        0.0646
     29 H           0.0131    1.8865    1.7257 H       1  UNL1        0.0624
     30 H          -2.4360    2.0152    1.9165 H       1  UNL1        0.0625
@<TRIPOS>BOND
     1     1     2    2
     2     2     3    1
     3     3     4    2
     4     4     5    1
     5     5     6    2
     6     5     7    1
     7     7     8   ar
     8     8     9   ar
     9     9    10    1
    10    10    11   ar
    11    11    12   ar
    12    12    13   ar
    13    13    14   ar
    14    14    15   ar
    15    15    16   ar
    16    16    17   ar
    17    17    18   ar
    18     9    19   ar
    19    19    20   ar
    20    20    21   ar
    21    21     2    1
    22    21     7   ar
    23    18    10   ar
    24    17    13   ar
    25     3    22    1
    26     4    23    1
    27     8    24    1
    28    11    25    1
    29    12    26    1
    30    14    27    1
    31    18    28    1
    32    19    29    1
    33    20    30    1
