@<TRIPOS>MOLECULE
*****
 40 44 0 0 0
SMALL
GASTEIGER

@<TRIPOS>ATOM
      1 O          -6.4085    1.6788    1.6125 O.2     1  UNL1       -0.2873
      2 C          -6.0303    1.0326    0.6443 C.2     1  UNL1        0.1869
      3 C          -6.9889    0.6265   -0.4018 C.2     1  UNL1       -0.0107
      4 C          -6.6060   -0.0754   -1.4709 C.2     1  UNL1       -0.0107
      5 C          -5.2024   -0.4869   -1.6693 C.2     1  UNL1        0.1869
      6 O          -4.8824   -1.1312   -2.6592 O.2     1  UNL1       -0.2873
      7 C          -4.2183   -0.0969   -0.6402 C.ar    1  UNL1        0.0330
      8 C          -2.8739   -0.4678   -0.7926 C.ar    1  UNL1       -0.0425
      9 C          -1.9129   -0.1127    0.1697 C.ar    1  UNL1       -0.0171
     10 C          -0.5013   -0.5016    0.0108 C.ar    1  UNL1       -0.0159
     11 C          -0.1437   -1.8412   -0.2204 C.ar    1  UNL1       -0.0532
     12 C           1.1934   -2.2113   -0.3813 C.ar    1  UNL1       -0.0484
     13 C           2.1933   -1.2397   -0.3071 C.ar    1  UNL1        0.0456
     14 C           3.6187   -1.6164   -0.4817 C.ar    1  UNL1        0.1971
     15 O           3.9350   -2.7824   -0.6959 O.2     1  UNL1       -0.2865
     16 C           4.6526   -0.5555   -0.3840 C.ar    1  UNL1        0.0456
     17 C           6.0066   -0.8749   -0.5294 C.ar    1  UNL1       -0.0489
     18 C           6.9656    0.1331   -0.4413 C.ar    1  UNL1       -0.0610
     19 C           6.5708    1.4522   -0.2156 C.ar    1  UNL1       -0.0598
     20 C           5.2164    1.7686   -0.0709 C.ar    1  UNL1       -0.0377
     21 C           4.2451    0.7649   -0.1348 C.ar    1  UNL1        0.0506
     22 N           2.8799    1.0796   -0.0428 N.ar    1  UNL1       -0.3539
     23 C           1.8722    0.1019   -0.0585 C.ar    1  UNL1        0.0511
     24 C           0.5253    0.4604    0.0803 C.ar    1  UNL1       -0.0299
     25 C          -2.3385    0.6236    1.2891 C.ar    1  UNL1       -0.0533
     26 C          -3.6777    0.9960    1.4437 C.ar    1  UNL1       -0.0497
     27 C          -4.6188    0.6348    0.4755 C.ar    1  UNL1        0.0325
     28 H          -8.0190    0.9297   -0.2539 H       1  UNL1        0.0657
     29 H          -7.3076   -0.3753   -2.2410 H       1  UNL1        0.0657
     30 H          -2.5737   -1.0304   -1.6770 H       1  UNL1        0.0631
     31 H          -0.9085   -2.6144   -0.2742 H       1  UNL1        0.0624
     32 H           1.4519   -3.2518   -0.5655 H       1  UNL1        0.0625
     33 H           6.3107   -1.9026   -0.7143 H       1  UNL1        0.0625
     34 H           8.0194   -0.1094   -0.5559 H       1  UNL1        0.0618
     35 H           7.3201    2.2385   -0.1587 H       1  UNL1        0.0618
     36 H           4.9303    2.8046    0.0883 H       1  UNL1        0.0638
     37 H           2.6450    1.9784    0.3584 H       1  UNL1        0.1659
     38 H           0.2667    1.5065    0.2299 H       1  UNL1        0.0644
     39 H          -1.6256    0.9038    2.0637 H       1  UNL1        0.0624
     40 H          -3.9809    1.5634    2.3222 H       1  UNL1        0.0625
@<TRIPOS>BOND
     1     1     2    2
     2     2     3    1
     3     3     4    2
     4     4     5    1
     5     5     6    2
     6     5     7    1
     7     7     8   ar
     8     8     9   ar
     9     9    10    1
    10    10    11   ar
    11    11    12   ar
    12    12    13   ar
    13    13    14   ar
    14    14    15    2
    15    14    16   ar
    16    16    17   ar
    17    17    18   ar
    18    18    19   ar
    19    19    20   ar
    20    20    21   ar
    21    21    22   ar
    22    22    23   ar
    23    23    24   ar
    24     9    25   ar
    25    25    26   ar
    26    26    27   ar
    27    27     2    1
    28    27     7   ar
    29    24    10   ar
    30    23    13   ar
    31    21    16   ar
    32     3    28    1
    33     4    29    1
    34     8    30    1
    35    11    31    1
    36    12    32    1
    37    17    33    1
    38    18    34    1
    39    19    35    1
    40    20    36    1
    41    22    37    1
    42    24    38    1
    43    25    39    1
    44    26    40    1
