@<TRIPOS>MOLECULE
*****
 44 48 0 0 0
SMALL
GASTEIGER

@<TRIPOS>ATOM
      1 O           7.4387   -1.1013   -0.1762 O.2     1  UNL1       -0.2873
      2 C           6.6998   -0.1701    0.1150 C.2     1  UNL1        0.1869
      3 C           7.2607    1.0882    0.6445 C.2     1  UNL1       -0.0107
      4 C           6.4816    2.1213    0.9728 C.2     1  UNL1       -0.0107
      5 C           5.0138    2.0660    0.8265 C.2     1  UNL1        0.1869
      6 O           4.3264    3.0276    1.1434 O.2     1  UNL1       -0.2873
      7 C           4.4213    0.8227    0.2944 C.ar    1  UNL1        0.0330
      8 C           3.0307    0.7327    0.1342 C.ar    1  UNL1       -0.0425
      9 C           2.4347   -0.4376   -0.3670 C.ar    1  UNL1       -0.0172
     10 C           0.9749   -0.5332   -0.5347 C.ar    1  UNL1       -0.0175
     11 C           0.4085   -0.9412   -1.7438 C.ar    1  UNL1       -0.0523
     12 C          -0.9799   -1.0329   -1.8876 C.ar    1  UNL1       -0.0397
     13 C          -1.8619   -0.7231   -0.8350 C.ar    1  UNL1        0.0346
     14 C          -1.3071   -0.2927    0.3757 C.ar    1  UNL1       -0.0253
     15 C           0.0985   -0.2162    0.5140 C.ar    1  UNL1       -0.0491
     16 C          -2.1520    0.0530    1.5742 C.3     1  UNL1       -0.0219
     17 C          -3.2441    1.0615    1.2445 C.3     1  UNL1       -0.0219
     18 C          -4.4721    0.4105    0.6649 C.ar    1  UNL1       -0.0259
     19 C          -5.7220    0.7357    1.2339 C.ar    1  UNL1       -0.0568
     20 C          -6.9048    0.1873    0.7444 C.ar    1  UNL1       -0.0614
     21 C          -6.8576   -0.6917   -0.3263 C.ar    1  UNL1       -0.0600
     22 C          -5.6274   -1.0089   -0.9046 C.ar    1  UNL1       -0.0403
     23 C          -4.4164   -0.4595   -0.4332 C.ar    1  UNL1        0.0345
     24 N          -3.2375   -0.8525   -1.0928 N.pl3   1  UNL1       -0.3141
     25 C           3.2742   -1.5143   -0.7028 C.ar    1  UNL1       -0.0533
     26 C           4.6613   -1.4278   -0.5461 C.ar    1  UNL1       -0.0497
     27 C           5.2350   -0.2554   -0.0467 C.ar    1  UNL1        0.0325
     28 H           8.3387    1.1261    0.7519 H       1  UNL1        0.0657
     29 H           6.8906    3.0464    1.3626 H       1  UNL1        0.0657
     30 H           2.4079    1.5894    0.3926 H       1  UNL1        0.0631
     31 H           1.0398   -1.1827   -2.5961 H       1  UNL1        0.0624
     32 H          -1.3724   -1.3501   -2.8513 H       1  UNL1        0.0636
     33 H           0.5160    0.0919    1.4724 H       1  UNL1        0.0627
     34 H          -1.5131    0.5019    2.3459 H       1  UNL1        0.0317
     35 H          -2.5604   -0.8679    2.0095 H       1  UNL1        0.0317
     36 H          -3.5155    1.5692    2.1793 H       1  UNL1        0.0317
     37 H          -2.8890    1.8429    0.5607 H       1  UNL1        0.0317
     38 H          -5.7778    1.4258    2.0735 H       1  UNL1        0.0621
     39 H          -7.8565    0.4465    1.2000 H       1  UNL1        0.0618
     40 H          -7.7721   -1.1307   -0.7151 H       1  UNL1        0.0618
     41 H          -5.6210   -1.7034   -1.7416 H       1  UNL1        0.0636
     42 H          -3.4267   -1.3319   -1.9657 H       1  UNL1        0.1522
     43 H           2.8473   -2.4426   -1.0810 H       1  UNL1        0.0624
     44 H           5.2869   -2.2784   -0.8118 H       1  UNL1        0.0625
@<TRIPOS>BOND
     1     1     2    2
     2     2     3    1
     3     3     4    2
     4     4     5    1
     5     5     6    2
     6     5     7    1
     7     7     8   ar
     8     8     9   ar
     9     9    10    1
    10    10    11   ar
    11    11    12   ar
    12    12    13   ar
    13    13    14   ar
    14    14    15   ar
    15    14    16    1
    16    16    17    1
    17    17    18    1
    18    18    19   ar
    19    19    20   ar
    20    20    21   ar
    21    21    22   ar
    22    22    23   ar
    23    23    24    1
    24     9    25   ar
    25    25    26   ar
    26    26    27   ar
    27    27     2    1
    28    27     7   ar
    29    15    10   ar
    30    23    18   ar
    31    24    13    1
    32     3    28    1
    33     4    29    1
    34     8    30    1
    35    11    31    1
    36    12    32    1
    37    15    33    1
    38    16    34    1
    39    16    35    1
    40    17    36    1
    41    17    37    1
    42    19    38    1
    43    20    39    1
    44    21    40    1
    45    22    41    1
    46    24    42    1
    47    25    43    1
    48    26    44    1
