@<TRIPOS>MOLECULE
*****
 39 43 0 0 0
SMALL
GASTEIGER

@<TRIPOS>ATOM
      1 O          -6.8264    0.5523    1.2954 O.2     1  UNL1       -0.2873
      2 C          -6.0415    0.8538    0.4062 C.2     1  UNL1        0.1869
      3 C          -6.4838    1.6914   -0.7257 C.2     1  UNL1       -0.0107
      4 C          -5.6506    2.0421   -1.7081 C.2     1  UNL1       -0.0107
      5 C          -4.2382    1.6135   -1.7195 C.2     1  UNL1        0.1869
      6 O          -3.4945    1.9626   -2.6267 O.2     1  UNL1       -0.2873
      7 C          -3.7669    0.7651   -0.6071 C.ar    1  UNL1        0.0330
      8 C          -2.4343    0.3272   -0.5884 C.ar    1  UNL1       -0.0425
      9 C          -1.9516   -0.4768    0.4587 C.ar    1  UNL1       -0.0171
     10 C          -0.5517   -0.9352    0.4797 C.ar    1  UNL1       -0.0160
     11 C          -0.2353   -2.2870    0.6662 C.ar    1  UNL1       -0.0529
     12 C           1.0948   -2.7144    0.6979 C.ar    1  UNL1       -0.0456
     13 C           2.1445   -1.8013    0.5367 C.ar    1  UNL1        0.0339
     14 C           1.8557   -0.4452    0.3241 C.ar    1  UNL1        0.0458
     15 C           0.5115   -0.0291    0.3174 C.ar    1  UNL1       -0.0317
     16 N           2.8652    0.5270    0.2014 N.pl3   1  UNL1       -0.3127
     17 C           4.2507    0.2921    0.1353 C.ar    1  UNL1        0.0453
     18 C           5.1141    1.3848   -0.0474 C.ar    1  UNL1       -0.0395
     19 C           6.4991    1.2110   -0.0763 C.ar    1  UNL1       -0.0599
     20 C           7.0417   -0.0580    0.0925 C.ar    1  UNL1       -0.0606
     21 C           6.1986   -1.1503    0.2966 C.ar    1  UNL1       -0.0462
     22 C           4.8053   -0.9846    0.3273 C.ar    1  UNL1        0.0339
     23 S           3.8092   -2.4391    0.6067 S.3     1  UNL1       -0.0857
     24 C          -2.8450   -0.8289    1.4857 C.ar    1  UNL1       -0.0533
     25 C          -4.1752   -0.3966    1.4691 C.ar    1  UNL1       -0.0497
     26 C          -4.6362    0.4019    0.4189 C.ar    1  UNL1        0.0325
     27 H          -7.5211    2.0061   -0.7139 H       1  UNL1        0.0657
     28 H          -5.9723    2.6584   -2.5398 H       1  UNL1        0.0657
     29 H          -1.7711    0.6075   -1.4069 H       1  UNL1        0.0631
     30 H          -1.0241   -3.0276    0.7837 H       1  UNL1        0.0624
     31 H           1.3050   -3.7709    0.8509 H       1  UNL1        0.0629
     32 H           0.2898    1.0295    0.1950 H       1  UNL1        0.0642
     33 H           2.5640    1.4219   -0.1620 H       1  UNL1        0.1522
     34 H           4.7109    2.3871   -0.1675 H       1  UNL1        0.0636
     35 H           7.1518    2.0674   -0.2250 H       1  UNL1        0.0618
     36 H           8.1193   -0.1992    0.0727 H       1  UNL1        0.0618
     37 H           6.6370   -2.1361    0.4361 H       1  UNL1        0.0629
     38 H          -2.5047   -1.4394    2.3216 H       1  UNL1        0.0624
     39 H          -4.8443   -0.6833    2.2789 H       1  UNL1        0.0625
@<TRIPOS>BOND
     1     1     2    2
     2     2     3    1
     3     3     4    2
     4     4     5    1
     5     5     6    2
     6     5     7    1
     7     7     8   ar
     8     8     9   ar
     9     9    10    1
    10    10    11   ar
    11    11    12   ar
    12    12    13   ar
    13    13    14   ar
    14    14    15   ar
    15    14    16    1
    16    16    17    1
    17    17    18   ar
    18    18    19   ar
    19    19    20   ar
    20    20    21   ar
    21    21    22   ar
    22    22    23    1
    23     9    24   ar
    24    24    25   ar
    25    25    26   ar
    26    26     2    1
    27    26     7   ar
    28    15    10   ar
    29    22    17   ar
    30    23    13    1
    31     3    27    1
    32     4    28    1
    33     8    29    1
    34    11    30    1
    35    12    31    1
    36    15    32    1
    37    16    33    1
    38    18    34    1
    39    19    35    1
    40    20    36    1
    41    21    37    1
    42    24    38    1
    43    25    39    1
