@<TRIPOS>MOLECULE
*****
 39 43 0 0 0
SMALL
GASTEIGER

@<TRIPOS>ATOM
      1 O           6.6461   -1.6498   -0.6222 O.2     1  UNL1       -0.2873
      2 C           6.0626   -0.7793    0.0100 C.2     1  UNL1        0.1869
      3 C           6.8266    0.2164    0.7864 C.2     1  UNL1       -0.0107
      4 C           6.2193    1.1741    1.4907 C.2     1  UNL1       -0.0107
      5 C           4.7487    1.2940    1.5343 C.2     1  UNL1        0.1869
      6 O           4.2225    2.1805    2.1936 O.2     1  UNL1       -0.2873
      7 C           3.9549    0.3167    0.7630 C.ar    1  UNL1        0.0330
      8 C           2.5544    0.3991    0.7748 C.ar    1  UNL1       -0.0425
      9 C           1.7704   -0.5178    0.0531 C.ar    1  UNL1       -0.0171
     10 C           0.3007   -0.4328    0.0645 C.ar    1  UNL1       -0.0158
     11 C          -0.4870   -1.5407    0.3808 C.ar    1  UNL1       -0.0533
     12 C          -1.8814   -1.4441    0.3878 C.ar    1  UNL1       -0.0514
     13 C          -2.5441   -0.2325    0.0762 C.ar    1  UNL1        0.0081
     14 C          -1.7450    0.8879   -0.2444 C.ar    1  UNL1        0.0721
     15 C          -0.3604    0.7667   -0.2426 C.ar    1  UNL1       -0.0280
     16 N          -2.2566    2.0844   -0.5576 N.ar    1  UNL1       -0.2543
     17 C          -3.5994    2.2175   -0.5620 C.ar    1  UNL1        0.0360
     18 C          -4.4981    1.2003   -0.2656 C.ar    1  UNL1        0.0008
     19 C          -5.8874    1.4240   -0.2935 C.ar    1  UNL1       -0.0526
     20 C          -6.7780    0.3971    0.0050 C.ar    1  UNL1       -0.0611
     21 C          -6.2882   -0.8592    0.3332 C.ar    1  UNL1       -0.0611
     22 C          -4.9083   -1.0868    0.3624 C.ar    1  UNL1       -0.0534
     23 C          -3.9704   -0.0653    0.0643 C.ar    1  UNL1       -0.0073
     24 C           2.4313   -1.5182   -0.6811 C.ar    1  UNL1       -0.0533
     25 C           3.8271   -1.6032   -0.6955 C.ar    1  UNL1       -0.0497
     26 C           4.5896   -0.6830    0.0292 C.ar    1  UNL1        0.0325
     27 H           7.9063    0.1261    0.7534 H       1  UNL1        0.0657
     28 H           6.7775    1.9065    2.0626 H       1  UNL1        0.0657
     29 H           2.0718    1.1812    1.3615 H       1  UNL1        0.0631
     30 H          -0.0250   -2.4917    0.6390 H       1  UNL1        0.0624
     31 H          -2.4426   -2.3376    0.6457 H       1  UNL1        0.0624
     32 H           0.2216    1.6500   -0.5036 H       1  UNL1        0.0645
     33 H          -3.9445    3.2150   -0.8236 H       1  UNL1        0.0836
     34 H          -6.2831    2.4050   -0.5493 H       1  UNL1        0.0624
     35 H          -7.8494    0.5780   -0.0185 H       1  UNL1        0.0618
     36 H          -6.9762   -1.6677    0.5682 H       1  UNL1        0.0618
     37 H          -4.5769   -2.0875    0.6256 H       1  UNL1        0.0624
     38 H           1.8580   -2.2378   -1.2645 H       1  UNL1        0.0624
     39 H           4.3128   -2.3858   -1.2762 H       1  UNL1        0.0625
@<TRIPOS>BOND
     1     1     2    2
     2     2     3    1
     3     3     4    2
     4     4     5    1
     5     5     6    2
     6     5     7    1
     7     7     8   ar
     8     8     9   ar
     9     9    10    1
    10    10    11   ar
    11    11    12   ar
    12    12    13   ar
    13    13    14   ar
    14    14    15   ar
    15    14    16   ar
    16    16    17   ar
    17    17    18   ar
    18    18    19   ar
    19    19    20   ar
    20    20    21   ar
    21    21    22   ar
    22    22    23   ar
    23     9    24   ar
    24    24    25   ar
    25    25    26   ar
    26    26     2    1
    27    26     7   ar
    28    15    10   ar
    29    23    18   ar
    30    23    13   ar
    31     3    27    1
    32     4    28    1
    33     8    29    1
    34    11    30    1
    35    12    31    1
    36    15    32    1
    37    17    33    1
    38    19    34    1
    39    20    35    1
    40    21    36    1
    41    22    37    1
    42    24    38    1
    43    25    39    1
