@<TRIPOS>MOLECULE
*****
 38 42 0 0 0
SMALL
GASTEIGER

@<TRIPOS>ATOM
      1 O          -6.6657   -0.0296    1.5716 O.2     1  UNL1       -0.2873
      2 C          -5.9821   -0.2044    0.5716 C.2     1  UNL1        0.1869
      3 C          -6.6070   -0.6477   -0.6898 C.2     1  UNL1       -0.0107
      4 C          -5.8888   -0.8473   -1.7973 C.2     1  UNL1       -0.0107
      5 C          -4.4281   -0.6370   -1.8255 C.2     1  UNL1        0.1869
      6 O          -3.7968   -0.8326   -2.8555 O.2     1  UNL1       -0.2873
      7 C          -3.7724   -0.1910   -0.5801 C.ar    1  UNL1        0.0330
      8 C          -2.3860    0.0236   -0.5668 C.ar    1  UNL1       -0.0425
      9 C          -1.7312    0.4474    0.6026 C.ar    1  UNL1       -0.0171
     10 C          -0.2756    0.6724    0.6180 C.ar    1  UNL1       -0.0142
     11 C           0.2659    1.8796    1.0977 C.ar    1  UNL1       -0.0503
     12 C           1.6474    2.0972    1.1146 C.ar    1  UNL1       -0.0151
     13 C           2.5078    1.1070    0.6509 C.ar    1  UNL1        0.1706
     14 C           1.9928   -0.0941    0.1719 C.ar    1  UNL1        0.1712
     15 C           0.6137   -0.3124    0.1537 C.ar    1  UNL1       -0.0079
     16 O           2.7992   -1.1021   -0.2946 O.3     1  UNL1       -0.4486
     17 C           4.1466   -0.8445   -0.2600 C.ar    1  UNL1        0.1706
     18 C           5.0059   -1.8383   -0.7261 C.ar    1  UNL1       -0.0156
     19 C           6.3853   -1.6235   -0.7113 C.ar    1  UNL1       -0.0581
     20 C           6.9010   -0.4177   -0.2312 C.ar    1  UNL1       -0.0581
     21 C           6.0385    0.5762    0.2351 C.ar    1  UNL1       -0.0156
     22 C           4.6614    0.3594    0.2193 C.ar    1  UNL1        0.1706
     23 O           3.8543    1.3656    0.6876 O.3     1  UNL1       -0.4486
     24 C          -2.5070    0.6490    1.7577 C.ar    1  UNL1       -0.0533
     25 C          -3.8894    0.4370    1.7481 C.ar    1  UNL1       -0.0497
     26 C          -4.5225    0.0164    0.5752 C.ar    1  UNL1        0.0325
     27 H          -7.6797   -0.8019   -0.6665 H       1  UNL1        0.0657
     28 H          -6.3449   -1.1731   -2.7252 H       1  UNL1        0.0657
     29 H          -1.8148   -0.1313   -1.4824 H       1  UNL1        0.0631
     30 H          -0.3906    2.6720    1.4532 H       1  UNL1        0.0625
     31 H           2.0470    3.0370    1.4852 H       1  UNL1        0.0656
     32 H           0.2386   -1.2637   -0.2173 H       1  UNL1        0.0662
     33 H           4.6034   -2.7756   -1.0997 H       1  UNL1        0.0655
     34 H           7.0585   -2.3963   -1.0744 H       1  UNL1        0.0619
     35 H           7.9755   -0.2522   -0.2207 H       1  UNL1        0.0619
     36 H           6.4382    1.5146    0.6085 H       1  UNL1        0.0655
     37 H          -2.0333    0.9639    2.6870 H       1  UNL1        0.0624
     38 H          -4.4650    0.5982    2.6582 H       1  UNL1        0.0625
@<TRIPOS>BOND
     1     1     2    2
     2     2     3    1
     3     3     4    2
     4     4     5    1
     5     5     6    2
     6     5     7    1
     7     7     8   ar
     8     8     9   ar
     9     9    10    1
    10    10    11   ar
    11    11    12   ar
    12    12    13   ar
    13    13    14   ar
    14    14    15   ar
    15    14    16    1
    16    16    17    1
    17    17    18   ar
    18    18    19   ar
    19    19    20   ar
    20    20    21   ar
    21    21    22   ar
    22    22    23    1
    23     9    24   ar
    24    24    25   ar
    25    25    26   ar
    26    26     2    1
    27    26     7   ar
    28    15    10   ar
    29    22    17   ar
    30    23    13    1
    31     3    27    1
    32     4    28    1
    33     8    29    1
    34    11    30    1
    35    12    31    1
    36    15    32    1
    37    18    33    1
    38    19    34    1
    39    20    35    1
    40    21    36    1
    41    24    37    1
    42    25    38    1
