@<TRIPOS>MOLECULE
*****
 40 46 0 0 0
SMALL
GASTEIGER

@<TRIPOS>ATOM
      1 SI         -5.9477   -0.6570   -0.0080 Si      1  UNL1        0.0000
      2 C          -6.6087    1.0008   -0.7347 C.2     1  UNL1        0.0000
      3 C          -5.6023    1.8486   -1.0416 C.2     1  UNL1        0.0000
      4 C          -4.3323    1.2803   -0.7423 C.ar    1  UNL1        0.0000
      5 O          -3.0701    1.7980   -0.8985 O.2     1  UNL1        0.0000
      6 C          -2.1825    0.8375   -0.4531 C.ar    1  UNL1        0.0000
      7 C          -2.9148   -0.2605   -0.0282 C.ar    1  UNL1        0.0000
      8 C          -4.2417    0.0036   -0.2028 C.ar    1  UNL1        0.0000
      9 C          -2.1808   -1.3623    0.4691 C.ar    1  UNL1        0.0000
     10 C          -2.6032   -2.5628    0.9519 C.ar    1  UNL1        0.0000
     11 N          -1.4416   -3.2315    1.2883 N.ar    1  UNL1        0.0000
     12 C          -0.3328   -2.4457    1.0125 C.ar    1  UNL1        0.0000
     13 C          -0.7770   -1.2507    0.4901 C.ar    1  UNL1        0.0000
     14 C           0.0205   -0.1548    0.0693 C.ar    1  UNL1        0.0000
     15 C           1.4262   -0.0405    0.0895 C.ar    1  UNL1        0.0000
     16 C           2.0134    1.1341   -0.3743 C.ar    1  UNL1        0.0000
     17 N           1.2661    2.1721   -0.8457 N.ar    1  UNL1        0.0000
     18 C          -0.0849    2.0526   -0.8611 C.ar    1  UNL1        0.0000
     19 C          -0.7616    0.9227   -0.4202 C.ar    1  UNL1        0.0000
     20 C           3.4773    1.3507   -0.3937 C.ar    1  UNL1        0.0000
     21 S           4.1087    2.8601   -0.9949 S.2     1  UNL1        0.0000
     22 C           5.7355    2.4164   -0.7296 C.ar    1  UNL1        0.0000
     23 C           5.8245    1.1595   -0.1990 C.ar    1  UNL1        0.0000
     24 N           7.0193    0.5788    0.1025 N.ar    1  UNL1        0.0000
     25 C           6.8362   -0.6658    0.6147 C.ar    1  UNL1        0.0000
     26 C           5.5943   -1.2773    0.8100 C.ar    1  UNL1        0.0000
     27 N           4.3886   -0.7188    0.5173 N.ar    1  UNL1        0.0000
     28 C           4.5309    0.5390   -0.0024 C.ar    1  UNL1        0.0000
     29 H          -6.2941   -1.7862   -0.9068 H       1  UNL1        0.0000
     30 H          -6.4048   -0.8216    1.3945 H       1  UNL1        0.0000
     31 H          -7.6680    1.1622   -0.8532 H       1  UNL1        0.0000
     32 H          -5.7164    2.8382   -1.4619 H       1  UNL1        0.0000
     33 H          -3.5728   -3.0169    1.0955 H       1  UNL1        0.0000
     34 H          -1.4028   -4.1635    1.6808 H       1  UNL1        0.0000
     35 H           0.6592   -2.8240    1.2191 H       1  UNL1        0.0000
     36 H           2.0201   -0.8637    0.4634 H       1  UNL1        0.0000
     37 H          -0.6160    2.9176   -1.2495 H       1  UNL1        0.0000
     38 H           6.5428    3.0914   -0.9728 H       1  UNL1        0.0000
     39 H           7.7505   -1.1897    0.8788 H       1  UNL1        0.0000
     40 H           5.5428   -2.2793    1.2270 H       1  UNL1        0.0000
@<TRIPOS>BOND
     1     1     2    1
     2     2     3    2
     3     3     4    1
     4     4     5   ar
     5     5     6   ar
     6     6     7   ar
     7     7     8   ar
     8     7     9   ar
     9     9    10   ar
    10    10    11   ar
    11    11    12   ar
    12    12    13   ar
    13    13    14   ar
    14    14    15   ar
    15    15    16   ar
    16    16    17   ar
    17    17    18   ar
    18    18    19   ar
    19    16    20    1
    20    20    21   ar
    21    21    22   ar
    22    22    23   ar
    23    23    24   ar
    24    24    25   ar
    25    25    26   ar
    26    26    27   ar
    27    27    28   ar
    28     8     1    1
    29    13     9   ar
    30    19    14   ar
    31    28    20   ar
    32     8     4   ar
    33    28    23   ar
    34    19     6   ar
    35     1    29    1
    36     1    30    1
    37     2    31    1
    38     3    32    1
    39    10    33    1
    40    11    34    1
    41    12    35    1
    42    15    36    1
    43    18    37    1
    44    22    38    1
    45    25    39    1
    46    26    40    1
