@<TRIPOS>MOLECULE
*****
 37 41 0 0 0
SMALL
GASTEIGER

@<TRIPOS>ATOM
      1 O           4.5996    2.0505   -1.7926 O.2     1  UNL1       -0.2873
      2 C           4.3007    1.3280   -0.8512 C.2     1  UNL1        0.1869
      3 C           5.2514    1.1186    0.2580 C.2     1  UNL1       -0.0107
      4 C           4.9547    0.3385    1.2998 C.2     1  UNL1       -0.0107
      5 C           3.6591   -0.3610    1.4042 C.2     1  UNL1        0.1869
      6 O           3.4191   -1.0718    2.3709 O.2     1  UNL1       -0.2873
      7 C           2.6842   -0.1706    0.3120 C.ar    1  UNL1        0.0330
      8 C           1.4409   -0.8147    0.3751 C.ar    1  UNL1       -0.0425
      9 C           0.4984   -0.6493   -0.6517 C.ar    1  UNL1       -0.0165
     10 C          -0.7939   -1.3300   -0.5935 C.ar    1  UNL1       -0.0081
     11 C          -0.9158   -2.6692   -1.0150 C.ar    1  UNL1       -0.0533
     12 C          -2.1386   -3.3320   -0.9744 C.ar    1  UNL1       -0.0592
     13 C          -3.2843   -2.6856   -0.5130 C.ar    1  UNL1       -0.0377
     14 C          -3.1595   -1.3563   -0.0917 C.ar    1  UNL1        0.0481
     15 N          -4.1206   -0.5060    0.4013 N.ar    1  UNL1       -0.3529
     16 C          -3.5850    0.7190    0.7061 C.ar    1  UNL1        0.0658
     17 C          -4.1887    1.8578    1.2241 C.ar    1  UNL1        0.0514
     18 N          -3.4389    2.9592    1.4454 N.ar    1  UNL1       -0.2612
     19 C          -2.1209    2.9183    1.1588 C.ar    1  UNL1        0.0283
     20 C          -1.4578    1.8153    0.6410 C.ar    1  UNL1       -0.0338
     21 C          -2.2258    0.6633    0.4008 C.ar    1  UNL1        0.0109
     22 C          -1.9498   -0.6547   -0.1137 C.ar    1  UNL1        0.0152
     23 C           0.8284    0.1670   -1.7453 C.ar    1  UNL1       -0.0533
     24 C           2.0664    0.8122   -1.8091 C.ar    1  UNL1       -0.0497
     25 C           2.9953    0.6424   -0.7771 C.ar    1  UNL1        0.0325
     26 H           6.2024    1.6329    0.1794 H       1  UNL1        0.0657
     27 H           5.6512    0.1827    2.1158 H       1  UNL1        0.0657
     28 H           1.2015   -1.4474    1.2300 H       1  UNL1        0.0631
     29 H          -0.0396   -3.2004   -1.3830 H       1  UNL1        0.0624
     30 H          -2.2018   -4.3657   -1.3069 H       1  UNL1        0.0618
     31 H          -4.2376   -3.2042   -0.4823 H       1  UNL1        0.0638
     32 H          -5.0912   -0.7548    0.5256 H       1  UNL1        0.1659
     33 H          -5.2419    1.9223    1.4679 H       1  UNL1        0.0851
     34 H          -1.5801    3.8383    1.3651 H       1  UNL1        0.0830
     35 H          -0.3958    1.8588    0.4397 H       1  UNL1        0.0639
     36 H           0.1132    0.3054   -2.5556 H       1  UNL1        0.0624
     37 H           2.3009    1.4432   -2.6649 H       1  UNL1        0.0625
@<TRIPOS>BOND
     1     1     2    2
     2     2     3    1
     3     3     4    2
     4     4     5    1
     5     5     6    2
     6     5     7    1
     7     7     8   ar
     8     8     9   ar
     9     9    10    1
    10    10    11   ar
    11    11    12   ar
    12    12    13   ar
    13    13    14   ar
    14    14    15   ar
    15    15    16   ar
    16    16    17   ar
    17    17    18   ar
    18    18    19   ar
    19    19    20   ar
    20    20    21   ar
    21    21    22   ar
    22     9    23   ar
    23    23    24   ar
    24    24    25   ar
    25    25     2    1
    26    25     7   ar
    27    22    10   ar
    28    22    14   ar
    29    21    16   ar
    30     3    26    1
    31     4    27    1
    32     8    28    1
    33    11    29    1
    34    12    30    1
    35    13    31    1
    36    15    32    1
    37    17    33    1
    38    19    34    1
    39    20    35    1
    40    23    36    1
    41    24    37    1
