@<TRIPOS>MOLECULE
*****
 37 41 0 0 0
SMALL
GASTEIGER

@<TRIPOS>ATOM
      1 O           4.3394    2.8387   -1.1970 O.2     1  UNL1       -0.2873
      2 C           4.1306    1.8765   -0.4702 C.2     1  UNL1        0.1869
      3 C           5.0943    1.5200    0.5892 C.2     1  UNL1       -0.0107
      4 C           4.8941    0.4783    1.3996 C.2     1  UNL1       -0.0107
      5 C           3.6979   -0.3787    1.2840 C.2     1  UNL1        0.1869
      6 O           3.5449   -1.3288    2.0398 O.2     1  UNL1       -0.2873
      7 C           2.7127   -0.0479    0.2355 C.ar    1  UNL1        0.0330
      8 C           1.5613   -0.8353    0.0957 C.ar    1  UNL1       -0.0425
      9 C           0.6104   -0.5409   -0.8937 C.ar    1  UNL1       -0.0165
     10 C          -0.5865   -1.3651   -1.0453 C.ar    1  UNL1       -0.0065
     11 C          -0.5339   -2.6104   -1.7078 C.ar    1  UNL1       -0.0532
     12 C          -1.6725   -3.4020   -1.8684 C.ar    1  UNL1       -0.0577
     13 C          -2.9089   -2.9844   -1.3753 C.ar    1  UNL1       -0.0187
     14 C          -2.9407   -1.7551   -0.7194 C.ar    1  UNL1        0.1368
     15 O          -4.0576   -1.2004   -0.1777 O.2     1  UNL1       -0.4548
     16 C          -3.6870   -0.0162    0.3759 C.ar    1  UNL1        0.1363
     17 C          -4.5456    0.8598    1.0376 C.ar    1  UNL1       -0.0187
     18 C          -3.9772    2.0307    1.5466 C.ar    1  UNL1       -0.0582
     19 C          -2.6151    2.2940    1.3930 C.ar    1  UNL1       -0.0610
     20 C          -1.7764    1.3922    0.7214 C.ar    1  UNL1       -0.0504
     21 C          -2.3255    0.2052    0.1946 C.ar    1  UNL1        0.0285
     22 C          -1.8336   -0.9302   -0.5305 C.ar    1  UNL1        0.0356
     23 C           0.8400    0.5522   -1.7446 C.ar    1  UNL1       -0.0533
     24 C           1.9860    1.3400   -1.6056 C.ar    1  UNL1       -0.0497
     25 C           2.9233    1.0386   -0.6122 C.ar    1  UNL1        0.0325
     26 H           5.9722    2.1505    0.6722 H       1  UNL1        0.0657
     27 H           5.6004    0.2140    2.1784 H       1  UNL1        0.0657
     28 H           1.4011   -1.6813    0.7645 H       1  UNL1        0.0631
     29 H           0.4142   -2.9661   -2.1095 H       1  UNL1        0.0624
     30 H          -1.5966   -4.3562   -2.3856 H       1  UNL1        0.0619
     31 H          -3.8050   -3.5827   -1.4898 H       1  UNL1        0.0654
     32 H          -5.5996    0.6365    1.1497 H       1  UNL1        0.0654
     33 H          -4.6071    2.7453    2.0723 H       1  UNL1        0.0619
     34 H          -2.1957    3.2114    1.8011 H       1  UNL1        0.0618
     35 H          -0.7195    1.6154    0.6181 H       1  UNL1        0.0625
     36 H           0.1185    0.7971   -2.5236 H       1  UNL1        0.0624
     37 H           2.1426    2.1850   -2.2743 H       1  UNL1        0.0625
@<TRIPOS>BOND
     1     1     2    2
     2     2     3    1
     3     3     4    2
     4     4     5    1
     5     5     6    2
     6     5     7    1
     7     7     8   ar
     8     8     9   ar
     9     9    10    1
    10    10    11   ar
    11    11    12   ar
    12    12    13   ar
    13    13    14   ar
    14    14    15   ar
    15    15    16   ar
    16    16    17   ar
    17    17    18   ar
    18    18    19   ar
    19    19    20   ar
    20    20    21   ar
    21    21    22   ar
    22     9    23   ar
    23    23    24   ar
    24    24    25   ar
    25    25     2    1
    26    25     7   ar
    27    22    10   ar
    28    22    14   ar
    29    21    16   ar
    30     3    26    1
    31     4    27    1
    32     8    28    1
    33    11    29    1
    34    12    30    1
    35    13    31    1
    36    17    32    1
    37    18    33    1
    38    19    34    1
    39    20    35    1
    40    23    36    1
    41    24    37    1
