@<TRIPOS>MOLECULE
*****
 36 40 0 0 0
SMALL
GASTEIGER

@<TRIPOS>ATOM
      1 O           4.6079    1.9175    1.3930 O.2     1  UNL1       -0.2873
      2 C           4.2202    1.2591    0.4372 C.2     1  UNL1        0.1869
      3 C           5.0511    1.1469   -0.7773 C.2     1  UNL1       -0.0107
      4 C           4.6514    0.4439   -1.8395 C.2     1  UNL1       -0.0107
      5 C           3.3557   -0.2625   -1.8619 C.2     1  UNL1        0.1869
      6 O           3.0152   -0.8961   -2.8518 O.2     1  UNL1       -0.2873
      7 C           2.5023   -0.1743   -0.6605 C.ar    1  UNL1        0.0330
      8 C           1.2650   -0.8334   -0.6414 C.ar    1  UNL1       -0.0425
      9 C           0.4362   -0.7642    0.4890 C.ar    1  UNL1       -0.0165
     10 C          -0.8500   -1.4571    0.5132 C.ar    1  UNL1       -0.0065
     11 C          -0.9266   -2.8445    0.7599 C.ar    1  UNL1       -0.0532
     12 C          -2.1511   -3.5140    0.7955 C.ar    1  UNL1       -0.0577
     13 C          -3.3478   -2.8280    0.5864 C.ar    1  UNL1       -0.0186
     14 C          -3.2525   -1.4597    0.3389 C.ar    1  UNL1        0.1388
     15 O          -4.3144   -0.6439    0.1128 O.2     1  UNL1       -0.4368
     16 C          -3.8254    0.6070   -0.0948 C.ar    1  UNL1        0.2284
     17 N          -4.6199    1.6627   -0.3522 N.ar    1  UNL1       -0.2205
     18 C          -3.9362    2.8116   -0.5343 C.ar    1  UNL1        0.0314
     19 C          -2.5564    2.9503   -0.4741 C.ar    1  UNL1       -0.0428
     20 C          -1.7734    1.8278   -0.2027 C.ar    1  UNL1       -0.0474
     21 C          -2.4336    0.6019   -0.0012 C.ar    1  UNL1        0.0482
     22 C          -2.0563   -0.7476    0.2903 C.ar    1  UNL1        0.0372
     23 C           0.8746   -0.0286    1.6017 C.ar    1  UNL1       -0.0533
     24 C           2.1065    0.6313    1.5840 C.ar    1  UNL1       -0.0497
     25 C           2.9211    0.5580    0.4493 C.ar    1  UNL1        0.0325
     26 H           6.0020    1.6670   -0.7589 H       1  UNL1        0.0657
     27 H           5.2594    0.3602   -2.7332 H       1  UNL1        0.0657
     28 H           0.9433   -1.4024   -1.5141 H       1  UNL1        0.0631
     29 H          -0.0126   -3.4119    0.9318 H       1  UNL1        0.0624
     30 H          -2.1745   -4.5844    0.9898 H       1  UNL1        0.0619
     31 H          -4.3091   -3.3283    0.6106 H       1  UNL1        0.0654
     32 H          -4.5615    3.6768   -0.7450 H       1  UNL1        0.0831
     33 H          -2.0959    3.9193   -0.6375 H       1  UNL1        0.0633
     34 H          -0.6932    1.9087   -0.1544 H       1  UNL1        0.0626
     35 H           0.2523    0.0336    2.4941 H       1  UNL1        0.0624
     36 H           2.4266    1.1976    2.4573 H       1  UNL1        0.0625
@<TRIPOS>BOND
     1     1     2    2
     2     2     3    1
     3     3     4    2
     4     4     5    1
     5     5     6    2
     6     5     7    1
     7     7     8   ar
     8     8     9   ar
     9     9    10    1
    10    10    11   ar
    11    11    12   ar
    12    12    13   ar
    13    13    14   ar
    14    14    15   ar
    15    15    16   ar
    16    16    17   ar
    17    17    18   ar
    18    18    19   ar
    19    19    20   ar
    20    20    21   ar
    21    21    22   ar
    22     9    23   ar
    23    23    24   ar
    24    24    25   ar
    25    25     2    1
    26    25     7   ar
    27    22    10   ar
    28    22    14   ar
    29    21    16   ar
    30     3    26    1
    31     4    27    1
    32     8    28    1
    33    11    29    1
    34    12    30    1
    35    13    31    1
    36    18    32    1
    37    19    33    1
    38    20    34    1
    39    23    35    1
    40    24    36    1
