@<TRIPOS>MOLECULE
*****
 36 40 0 0 0
SMALL
GASTEIGER

@<TRIPOS>ATOM
      1 O           4.3266    1.7714    2.2482 O.2     1  UNL1       -0.2873
      2 C           4.0262    1.2859    1.1659 C.2     1  UNL1        0.1869
      3 C           4.9331    1.4230    0.0097 C.2     1  UNL1       -0.0107
      4 C           4.6293    0.9127   -1.1859 C.2     1  UNL1       -0.0107
      5 C           3.3691    0.1816   -1.4221 C.2     1  UNL1        0.1869
      6 O           3.1164   -0.2700   -2.5309 O.2     1  UNL1       -0.2873
      7 C           2.4421    0.0216   -0.2845 C.ar    1  UNL1        0.0330
      8 C           1.2365   -0.6702   -0.4670 C.ar    1  UNL1       -0.0425
      9 C           0.3384   -0.8329    0.5998 C.ar    1  UNL1       -0.0166
     10 C          -0.9099   -1.5749    0.4175 C.ar    1  UNL1       -0.0090
     11 C          -0.9026   -2.9751    0.5836 C.ar    1  UNL1       -0.0534
     12 C          -2.0578   -3.7224    0.4284 C.ar    1  UNL1       -0.0601
     13 C          -3.2543   -3.0932    0.1041 C.ar    1  UNL1       -0.0473
     14 C          -3.2757   -1.6934   -0.0666 C.ar    1  UNL1        0.0225
     15 S          -4.6642   -0.7635   -0.4653 S.2     1  UNL1       -0.0687
     16 C          -3.7900    0.6845   -0.4612 C.ar    1  UNL1        0.1093
     17 N          -4.4190    1.8483   -0.7329 N.ar    1  UNL1       -0.2478
     18 C          -3.6224    2.9309   -0.7047 C.ar    1  UNL1        0.0289
     19 C          -2.2706    2.9149   -0.4270 C.ar    1  UNL1       -0.0429
     20 C          -1.6635    1.6915   -0.1508 C.ar    1  UNL1       -0.0500
     21 C          -2.4430    0.5082   -0.1622 C.ar    1  UNL1        0.0159
     22 C          -2.1279   -0.8997    0.0785 C.ar    1  UNL1        0.0061
     23 C           0.6767   -0.3002    1.8543 C.ar    1  UNL1       -0.0533
     24 C           1.8770    0.3919    2.0372 C.ar    1  UNL1       -0.0497
     25 C           2.7605    0.5529    0.9646 C.ar    1  UNL1        0.0325
     26 H           5.8577    1.9610    0.1852 H       1  UNL1        0.0657
     27 H           5.2932    1.0125   -2.0371 H       1  UNL1        0.0657
     28 H           0.9937   -1.0848   -1.4458 H       1  UNL1        0.0631
     29 H           0.0252   -3.4849    0.8394 H       1  UNL1        0.0624
     30 H          -2.0318   -4.8014    0.5603 H       1  UNL1        0.0618
     31 H          -4.1634   -3.6771   -0.0176 H       1  UNL1        0.0629
     32 H          -4.1263    3.8693   -0.9246 H       1  UNL1        0.0830
     33 H          -1.6957    3.8346   -0.4249 H       1  UNL1        0.0633
     34 H          -0.6021    1.6693    0.0667 H       1  UNL1        0.0625
     35 H          -0.0006   -0.4225    2.6990 H       1  UNL1        0.0624
     36 H           2.1190    0.8000    3.0174 H       1  UNL1        0.0625
@<TRIPOS>BOND
     1     1     2    2
     2     2     3    1
     3     3     4    2
     4     4     5    1
     5     5     6    2
     6     5     7    1
     7     7     8   ar
     8     8     9   ar
     9     9    10    1
    10    10    11   ar
    11    11    12   ar
    12    12    13   ar
    13    13    14   ar
    14    14    15   ar
    15    15    16   ar
    16    16    17   ar
    17    17    18   ar
    18    18    19   ar
    19    19    20   ar
    20    20    21   ar
    21    21    22   ar
    22     9    23   ar
    23    23    24   ar
    24    24    25   ar
    25    25     2    1
    26    25     7   ar
    27    22    10   ar
    28    22    14   ar
    29    21    16   ar
    30     3    26    1
    31     4    27    1
    32     8    28    1
    33    11    29    1
    34    12    30    1
    35    13    31    1
    36    18    32    1
    37    19    33    1
    38    20    34    1
    39    23    35    1
    40    24    36    1
