@<TRIPOS>MOLECULE
*****
 26 28 0 0 0
SMALL
GASTEIGER

@<TRIPOS>ATOM
      1 O          -3.8621   -2.4247    0.0913 O.2     1  UNL1       -0.2873
      2 C          -3.4468   -1.2749    0.1432 C.2     1  UNL1        0.1869
      3 C          -4.3908   -0.1471    0.2698 C.2     1  UNL1       -0.0107
      4 C          -3.9699    1.1184    0.3289 C.2     1  UNL1       -0.0107
      5 C          -2.5360    1.4629    0.2710 C.2     1  UNL1        0.1869
      6 O          -2.1772    2.6319    0.3272 O.2     1  UNL1       -0.2873
      7 C          -1.5649    0.3575    0.1443 C.ar    1  UNL1        0.0331
      8 C          -0.1901    0.6505    0.0863 C.ar    1  UNL1       -0.0410
      9 C           0.7776   -0.3659   -0.0344 C.ar    1  UNL1        0.0028
     10 C           2.2358   -0.0884   -0.0981 C.ar    1  UNL1        0.0933
     11 C           2.8083    1.1799   -0.0474 C.ar    1  UNL1       -0.0325
     12 C           4.1937    1.3157   -0.1162 C.ar    1  UNL1       -0.0398
     13 C           4.9591    0.1765   -0.2335 C.ar    1  UNL1        0.0500
     14 N           4.4076   -1.0462   -0.2825 N.ar    1  UNL1       -0.1571
     15 N           3.0411   -1.1726   -0.2141 N.ar    1  UNL1       -0.1493
     16 C           0.2933   -1.6914   -0.0939 C.ar    1  UNL1       -0.0518
     17 C          -1.0741   -1.9901   -0.0367 C.ar    1  UNL1       -0.0496
     18 C          -2.0059   -0.9602    0.0829 C.ar    1  UNL1        0.0325
     19 H          -5.4431   -0.4044    0.3120 H       1  UNL1        0.0657
     20 H          -4.6609    1.9484    0.4219 H       1  UNL1        0.0657
     21 H           0.1035    1.6966    0.1382 H       1  UNL1        0.0631
     22 H           2.2090    2.0779    0.0449 H       1  UNL1        0.0640
     23 H           4.6601    2.2938   -0.0785 H       1  UNL1        0.0634
     24 H           6.0404    0.2092   -0.2921 H       1  UNL1        0.0848
     25 H           0.9912   -2.5251   -0.1875 H       1  UNL1        0.0624
     26 H          -1.3990   -3.0283   -0.0863 H       1  UNL1        0.0625
@<TRIPOS>BOND
     1     1     2    2
     2     2     3    1
     3     3     4    2
     4     4     5    1
     5     5     6    2
     6     5     7    1
     7     7     8   ar
     8     8     9   ar
     9     9    10    1
    10    10    11   ar
    11    11    12   ar
    12    12    13   ar
    13    13    14   ar
    14    14    15   ar
    15     9    16   ar
    16    16    17   ar
    17    17    18   ar
    18    18     2    1
    19    18     7   ar
    20    15    10   ar
    21     3    19    1
    22     4    20    1
    23     8    21    1
    24    11    22    1
    25    12    23    1
    26    13    24    1
    27    16    25    1
    28    17    26    1
