@<TRIPOS>MOLECULE
*****
 25 27 0 0 0
SMALL
GASTEIGER

@<TRIPOS>ATOM
      1 O           3.7016    1.6720    1.2694 O.2     1  UNL1       -0.2873
      2 C           3.2197    0.7993    0.5596 C.2     1  UNL1        0.1869
      3 C           4.0968   -0.1066   -0.2074 C.2     1  UNL1       -0.0107
      4 C           3.6016   -1.0696   -0.9882 C.2     1  UNL1       -0.0107
      5 C           2.1483   -1.2855   -1.1299 C.2     1  UNL1        0.1869
      6 O           1.7243   -2.1807   -1.8486 O.2     1  UNL1       -0.2873
      7 C           1.2429   -0.3930   -0.3790 C.ar    1  UNL1        0.0330
      8 C          -0.1449   -0.5635   -0.4923 C.ar    1  UNL1       -0.0424
      9 C          -1.0264    0.2694    0.2125 C.ar    1  UNL1       -0.0142
     10 C          -2.4672    0.1067    0.1034 C.ar    1  UNL1        0.0193
     11 C          -3.5228    1.0272    0.3106 C.ar    1  UNL1        0.0568
     12 N          -4.7289    0.4858    0.1220 N.ar    1  UNL1       -0.1817
     13 N          -4.4540   -0.7854   -0.2075 N.ar    1  UNL1       -0.2841
     14 C          -3.1173   -1.0638   -0.2295 C.ar    1  UNL1        0.0300
     15 C          -0.4915    1.2777    1.0285 C.ar    1  UNL1       -0.0532
     16 C           0.8924    1.4495    1.1416 C.ar    1  UNL1       -0.0497
     17 C           1.7607    0.6116    0.4358 C.ar    1  UNL1        0.0325
     18 H           5.1637    0.0535   -0.1011 H       1  UNL1        0.0657
     19 H           4.2435   -1.7367   -1.5522 H       1  UNL1        0.0657
     20 H          -0.5278   -1.3457   -1.1458 H       1  UNL1        0.0631
     21 H          -3.4637    2.0722    0.5867 H       1  UNL1        0.0854
     22 H          -5.2292   -1.4111   -0.4017 H       1  UNL1        0.1882
     23 H          -2.7657   -2.0573   -0.4688 H       1  UNL1        0.0830
     24 H          -1.1425    1.9379    1.5987 H       1  UNL1        0.0624
     25 H           1.2863    2.2364    1.7832 H       1  UNL1        0.0625
@<TRIPOS>BOND
     1     1     2    2
     2     2     3    1
     3     3     4    2
     4     4     5    1
     5     5     6    2
     6     5     7    1
     7     7     8   ar
     8     8     9   ar
     9     9    10    1
    10    10    11   ar
    11    11    12   ar
    12    12    13   ar
    13    13    14   ar
    14     9    15   ar
    15    15    16   ar
    16    16    17   ar
    17    17     2    1
    18    17     7   ar
    19    14    10   ar
    20     3    18    1
    21     4    19    1
    22     8    20    1
    23    11    21    1
    24    13    22    1
    25    14    23    1
    26    15    24    1
    27    16    25    1
