@<TRIPOS>MOLECULE
*****
 35 39 0 0 0
SMALL
GASTEIGER

@<TRIPOS>ATOM
      1 O           6.1125   -0.6920    0.9376 O.2     1  UNL1       -0.2873
      2 C           5.3425   -0.2082    0.1187 C.2     1  UNL1        0.1869
      3 C           5.8430    0.2699   -1.1849 C.2     1  UNL1       -0.0107
      4 C           5.0263    0.7945   -2.1016 C.2     1  UNL1       -0.0107
      5 C           3.5754    0.9262   -1.8650 C.2     1  UNL1        0.1869
      6 O           2.8474    1.3959   -2.7293 O.2     1  UNL1       -0.2873
      7 C           3.0450    0.4699   -0.5652 C.ar    1  UNL1        0.0330
      8 C           1.6728    0.5914   -0.2974 C.ar    1  UNL1       -0.0425
      9 C           1.1319    0.1620    0.9275 C.ar    1  UNL1       -0.0157
     10 C          -0.3079    0.2875    1.2059 C.ar    1  UNL1        0.0009
     11 C          -0.7846    0.8414    2.3937 C.ar    1  UNL1        0.0366
     12 N          -2.0798    0.9966    2.7491 N.ar    1  UNL1       -0.2472
     13 C          -2.9597    0.5616    1.8241 C.ar    1  UNL1        0.1107
     14 S          -4.6329    0.6786    2.1007 S.2     1  UNL1       -0.0490
     15 C          -4.9871   -0.0232    0.5928 C.ar    1  UNL1        0.1107
     16 N          -6.2675   -0.2106    0.2075 N.ar    1  UNL1       -0.2478
     17 C          -6.4013   -0.7743   -1.0089 C.ar    1  UNL1        0.0289
     18 C          -5.3588   -1.1509   -1.8368 C.ar    1  UNL1       -0.0429
     19 C          -4.0523   -0.9413   -1.4018 C.ar    1  UNL1       -0.0500
     20 C          -3.8463   -0.3527   -0.1338 C.ar    1  UNL1        0.0169
     21 C          -2.6505   -0.0075    0.5940 C.ar    1  UNL1        0.0175
     22 C          -1.2756   -0.1441    0.2873 C.ar    1  UNL1       -0.0422
     23 C           2.0102   -0.3935    1.8752 C.ar    1  UNL1       -0.0533
     24 C           3.3793   -0.5134    1.6127 C.ar    1  UNL1       -0.0497
     25 C           3.8971   -0.0796    0.3893 C.ar    1  UNL1        0.0325
     26 H           6.9088    0.1700   -1.3564 H       1  UNL1        0.0657
     27 H           5.3909    1.1448   -3.0606 H       1  UNL1        0.0657
     28 H           1.0248    1.0385   -1.0518 H       1  UNL1        0.0631
     29 H          -0.0882    1.2122    3.1450 H       1  UNL1        0.0836
     30 H          -7.4316   -0.9263   -1.3236 H       1  UNL1        0.0830
     31 H          -5.5579   -1.5993   -2.8043 H       1  UNL1        0.0633
     32 H          -3.2129   -1.2254   -2.0294 H       1  UNL1        0.0625
     33 H          -0.9814   -0.5944   -0.6572 H       1  UNL1        0.0631
     34 H           1.6331   -0.7549    2.8318 H       1  UNL1        0.0624
     35 H           4.0355   -0.9494    2.3648 H       1  UNL1        0.0625
@<TRIPOS>BOND
     1     1     2    2
     2     2     3    1
     3     3     4    2
     4     4     5    1
     5     5     6    2
     6     5     7    1
     7     7     8   ar
     8     8     9   ar
     9     9    10    1
    10    10    11   ar
    11    11    12   ar
    12    12    13   ar
    13    13    14   ar
    14    14    15   ar
    15    15    16   ar
    16    16    17   ar
    17    17    18   ar
    18    18    19   ar
    19    19    20   ar
    20    20    21   ar
    21    21    22   ar
    22     9    23   ar
    23    23    24   ar
    24    24    25   ar
    25    25     2    1
    26    25     7   ar
    27    22    10   ar
    28    21    13   ar
    29    20    15   ar
    30     3    26    1
    31     4    27    1
    32     8    28    1
    33    11    29    1
    34    17    30    1
    35    18    31    1
    36    19    32    1
    37    22    33    1
    38    23    34    1
    39    24    35    1
