@<TRIPOS>MOLECULE
*****
 36 40 0 0 0
SMALL
GASTEIGER

@<TRIPOS>ATOM
      1 O          -4.8234    2.8330   -0.2266 O.2     1  UNL1       -0.2873
      2 C          -4.6270    1.6930    0.1724 C.2     1  UNL1        0.1869
      3 C          -5.6797    0.9674    0.9095 C.2     1  UNL1       -0.0107
      4 C          -5.4883   -0.2712    1.3693 C.2     1  UNL1       -0.0107
      5 C          -4.2137   -0.9874    1.1671 C.2     1  UNL1        0.1869
      6 O          -4.0638   -2.1191    1.6073 O.2     1  UNL1       -0.2873
      7 C          -3.1435   -0.2933    0.4239 C.ar    1  UNL1        0.0330
      8 C          -1.9196   -0.9431    0.2041 C.ar    1  UNL1       -0.0424
      9 C          -0.8836   -0.3065   -0.4987 C.ar    1  UNL1       -0.0137
     10 C           0.3904   -0.9836   -0.7299 C.ar    1  UNL1        0.0241
     11 C           0.5116   -2.1653   -1.4635 C.ar    1  UNL1        0.0373
     12 N           1.6662   -2.8256   -1.7139 N.ar    1  UNL1       -0.2619
     13 C           2.8231   -2.3245   -1.2207 C.ar    1  UNL1        0.0374
     14 C           2.8251   -1.1478   -0.4611 C.ar    1  UNL1        0.0275
     15 C           1.6090   -0.5006   -0.2285 C.ar    1  UNL1        0.0583
     16 N           1.8881    0.6012    0.5514 N.ar    1  UNL1       -0.3535
     17 C           3.2339    0.6975    0.8075 C.ar    1  UNL1        0.0504
     18 C           3.9525    1.6433    1.5354 C.ar    1  UNL1       -0.0196
     19 C           5.3202    1.4230    1.5909 C.ar    1  UNL1        0.0295
     20 N           5.9622    0.3887    1.0054 N.ar    1  UNL1       -0.2625
     21 C           5.2397   -0.5198    0.3043 C.ar    1  UNL1        0.0373
     22 C           3.8500   -0.3873    0.1857 C.ar    1  UNL1        0.0269
     23 C          -1.1066    0.9943   -0.9812 C.ar    1  UNL1       -0.0532
     24 C          -2.3245    1.6450   -0.7621 C.ar    1  UNL1       -0.0497
     25 C          -3.3444    0.9990   -0.0566 C.ar    1  UNL1        0.0325
     26 H          -6.6144    1.4961    1.0580 H       1  UNL1        0.0657
     27 H          -6.2590   -0.8065    1.9125 H       1  UNL1        0.0657
     28 H          -1.7729   -1.9519    0.5921 H       1  UNL1        0.0631
     29 H          -0.3676   -2.6341   -1.9018 H       1  UNL1        0.0836
     30 H           3.7232   -2.8856   -1.4458 H       1  UNL1        0.0836
     31 H           1.1919    1.2488    0.8924 H       1  UNL1        0.1659
     32 H           3.4881    2.4892    2.0251 H       1  UNL1        0.0653
     33 H           5.9657    2.1077    2.1359 H       1  UNL1        0.0830
     34 H           5.7987   -1.3325   -0.1453 H       1  UNL1        0.0836
     35 H          -0.3319    1.5072   -1.5513 H       1  UNL1        0.0624
     36 H          -2.4756    2.6514   -1.1503 H       1  UNL1        0.0625
@<TRIPOS>BOND
     1     1     2    2
     2     2     3    1
     3     3     4    2
     4     4     5    1
     5     5     6    2
     6     5     7    1
     7     7     8   ar
     8     8     9   ar
     9     9    10    1
    10    10    11   ar
    11    11    12   ar
    12    12    13   ar
    13    13    14   ar
    14    14    15   ar
    15    15    16   ar
    16    16    17   ar
    17    17    18   ar
    18    18    19   ar
    19    19    20   ar
    20    20    21   ar
    21    21    22   ar
    22     9    23   ar
    23    23    24   ar
    24    24    25   ar
    25    25     2    1
    26    25     7   ar
    27    15    10   ar
    28    22    17   ar
    29    22    14   ar
    30     3    26    1
    31     4    27    1
    32     8    28    1
    33    11    29    1
    34    13    30    1
    35    16    31    1
    36    18    32    1
    37    19    33    1
    38    21    34    1
    39    23    35    1
    40    24    36    1
