@<TRIPOS>MOLECULE
*****
 32 36 0 0 0
SMALL
GASTEIGER

@<TRIPOS>ATOM
      1 O          -5.8513   -1.3584    0.2905 O.2     1  UNL1       -0.2873
      2 C          -5.1779   -0.4164   -0.1050 C.2     1  UNL1        0.1869
      3 C          -5.8286    0.7705   -0.6930 C.2     1  UNL1       -0.0107
      4 C          -5.1215    1.8138   -1.1332 C.2     1  UNL1       -0.0107
      5 C          -3.6478    1.8417   -1.0578 C.2     1  UNL1        0.1869
      6 O          -3.0264    2.8121   -1.4694 O.2     1  UNL1       -0.2873
      7 C          -2.9647    0.6697   -0.4747 C.ar    1  UNL1        0.0332
      8 C          -1.5640    0.6598   -0.3861 C.ar    1  UNL1       -0.0380
      9 C          -0.8909   -0.4419    0.1639 C.ar    1  UNL1        0.0376
     10 C           0.5661   -0.4852    0.2713 C.ar    1  UNL1        0.2284
     11 N           1.3320   -1.4455    0.7614 N.ar    1  UNL1       -0.2088
     12 C           2.6044   -0.9591    0.6127 C.ar    1  UNL1        0.1135
     13 C           3.8503   -1.5011    0.9381 C.ar    1  UNL1        0.0120
     14 C           4.9739   -0.7376    0.6523 C.ar    1  UNL1        0.1573
     15 O           6.2828   -1.0486    0.8747 O.2     1  UNL1       -0.4424
     16 C           6.9531    0.0448    0.4090 C.ar    1  UNL1        0.1831
     17 N           6.2013    1.0078   -0.0816 N.ar    1  UNL1       -0.2160
     18 C           4.9285    0.5217    0.0670 C.ar    1  UNL1        0.1129
     19 C           3.6821    1.0629   -0.2581 C.ar    1  UNL1        0.0120
     20 C           2.5591    0.2987    0.0281 C.ar    1  UNL1        0.1580
     21 O           1.2519    0.6101   -0.1943 O.2     1  UNL1       -0.4352
     22 C          -1.6505   -1.5308    0.6221 C.ar    1  UNL1       -0.0488
     23 C          -3.0464   -1.5233    0.5349 C.ar    1  UNL1       -0.0495
     24 C          -3.7041   -0.4191   -0.0153 C.ar    1  UNL1        0.0325
     25 H          -6.9111    0.7476   -0.7473 H       1  UNL1        0.0657
     26 H          -5.5969    2.6868   -1.5656 H       1  UNL1        0.0657
     27 H          -1.0022    1.5199   -0.7503 H       1  UNL1        0.0632
     28 H           3.9342   -2.4796    1.3958 H       1  UNL1        0.0677
     29 H           8.0311    0.0164    0.4868 H       1  UNL1        0.1255
     30 H           3.5987    2.0415   -0.7158 H       1  UNL1        0.0677
     31 H          -1.1521   -2.3994    1.0537 H       1  UNL1        0.0625
     32 H          -3.6130   -2.3799    0.8972 H       1  UNL1        0.0625
@<TRIPOS>BOND
     1     1     2    2
     2     2     3    1
     3     3     4    2
     4     4     5    1
     5     5     6    2
     6     5     7    1
     7     7     8   ar
     8     8     9   ar
     9     9    10    1
    10    10    11   ar
    11    11    12   ar
    12    12    13   ar
    13    13    14   ar
    14    14    15   ar
    15    15    16   ar
    16    16    17   ar
    17    17    18   ar
    18    18    19   ar
    19    19    20   ar
    20    20    21   ar
    21     9    22   ar
    22    22    23   ar
    23    23    24   ar
    24    24     2    1
    25    24     7   ar
    26    21    10   ar
    27    20    12   ar
    28    18    14   ar
    29     3    25    1
    30     4    26    1
    31     8    27    1
    32    13    28    1
    33    16    29    1
    34    19    30    1
    35    22    31    1
    36    23    32    1
