@<TRIPOS>MOLECULE
*****
 32 36 0 0 0
SMALL
GASTEIGER

@<TRIPOS>ATOM
      1 O          -5.5610   -2.5749    0.6350 O.2     1  UNL1       -0.2873
      2 C          -5.1013   -1.5013    0.2693 C.2     1  UNL1        0.1869
      3 C          -5.9981   -0.4207   -0.1840 C.2     1  UNL1       -0.0107
      4 C          -5.5248    0.7602   -0.5883 C.2     1  UNL1       -0.0107
      5 C          -4.0783    1.0548   -0.6059 C.2     1  UNL1        0.1869
      6 O          -3.6778    2.1478   -0.9825 O.2     1  UNL1       -0.2873
      7 C          -3.1540   -0.0065   -0.1580 C.ar    1  UNL1        0.0331
      8 C          -1.7712    0.2303   -0.1584 C.ar    1  UNL1       -0.0405
      9 C          -0.8603   -0.7579    0.2619 C.ar    1  UNL1        0.0079
     10 C           0.5860   -0.4463    0.2380 C.ar    1  UNL1        0.1095
     11 N           1.0716    0.7144   -0.1582 N.ar    1  UNL1       -0.2390
     12 C           2.4512    0.7257   -0.0759 C.ar    1  UNL1        0.0801
     13 C           3.2918    1.7932   -0.4156 C.ar    1  UNL1       -0.0194
     14 C           4.6747    1.6701   -0.2836 C.ar    1  UNL1        0.0410
     15 S           5.9193    2.8096   -0.6245 S.2     1  UNL1       -0.0753
     16 C           7.0897    1.6622   -0.1294 C.ar    1  UNL1        0.0659
     17 N           6.6335    0.4970    0.2703 N.ar    1  UNL1       -0.2474
     18 C           5.2517    0.4897    0.1864 C.ar    1  UNL1        0.0793
     19 C           4.4088   -0.5766    0.5254 C.ar    1  UNL1       -0.0194
     20 C           3.0261   -0.4515    0.3928 C.ar    1  UNL1        0.0416
     21 S           1.7822   -1.5843    0.7312 S.2     1  UNL1       -0.0671
     22 C          -1.3829   -1.9931    0.6830 C.ar    1  UNL1       -0.0513
     23 C          -2.7631   -2.2328    0.6846 C.ar    1  UNL1       -0.0496
     24 C          -3.6489   -1.2374    0.2633 C.ar    1  UNL1        0.0325
     25 H          -7.0598   -0.6389   -0.1704 H       1  UNL1        0.0657
     26 H          -6.1804    1.5566   -0.9220 H       1  UNL1        0.0657
     27 H          -1.3986    1.2006   -0.4916 H       1  UNL1        0.0631
     28 H           2.8505    2.7159   -0.7823 H       1  UNL1        0.0651
     29 H           8.1474    1.8914   -0.1474 H       1  UNL1        0.0907
     30 H           4.8495   -1.4993    0.8922 H       1  UNL1        0.0651
     31 H          -0.7334   -2.7985    1.0197 H       1  UNL1        0.0624
     32 H          -3.1400   -3.1995    1.0162 H       1  UNL1        0.0625
@<TRIPOS>BOND
     1     1     2    2
     2     2     3    1
     3     3     4    2
     4     4     5    1
     5     5     6    2
     6     5     7    1
     7     7     8   ar
     8     8     9   ar
     9     9    10    1
    10    10    11   ar
    11    11    12   ar
    12    12    13   ar
    13    13    14   ar
    14    14    15   ar
    15    15    16   ar
    16    16    17   ar
    17    17    18   ar
    18    18    19   ar
    19    19    20   ar
    20    20    21   ar
    21     9    22   ar
    22    22    23   ar
    23    23    24   ar
    24    24     2    1
    25    24     7   ar
    26    21    10   ar
    27    20    12   ar
    28    18    14   ar
    29     3    25    1
    30     4    26    1
    31     8    27    1
    32    13    28    1
    33    16    29    1
    34    19    30    1
    35    22    31    1
    36    23    32    1
