@<TRIPOS>MOLECULE
*****
 39 44 0 0 0
SMALL
GASTEIGER

@<TRIPOS>ATOM
      1 SI          6.4203   -0.9436    0.2562 Si      1  UNL1        0.0000
      2 C           6.6672    0.6960   -0.7540 C.2     1  UNL1        0.0000
      3 C           5.4939    1.3294   -0.9751 C.2     1  UNL1        0.0000
      4 C           4.4041    0.6160   -0.4046 C.ar    1  UNL1        0.0000
      5 O           3.0614    0.8897   -0.3888 O.2     1  UNL1        0.0000
      6 C           2.4964   -0.1380    0.2992 C.ar    1  UNL1        0.0000
      7 C           3.4207   -1.0724    0.7329 C.ar    1  UNL1        0.0000
      8 N           3.0803   -2.1779    1.4372 N.ar    1  UNL1        0.0000
      9 C           1.7639   -2.3882    1.7383 C.ar    1  UNL1        0.0000
     10 C           0.7179   -1.5267    1.3634 C.ar    1  UNL1        0.0000
     11 C          -0.6937   -1.4788    1.5247 C.ar    1  UNL1        0.0000
     12 C          -1.1693   -0.3371    0.8901 C.ar    1  UNL1        0.0000
     13 N          -0.0755    0.3253    0.3688 N.ar    1  UNL1        0.0000
     14 C           1.0374   -0.3963    0.6472 C.ar    1  UNL1        0.0000
     15 C          -2.5300    0.1893    0.7743 C.ar    1  UNL1        0.0000
     16 C          -3.1619    0.6137    1.9535 C.ar    1  UNL1        0.0000
     17 C          -4.4400    1.1604    1.9154 C.ar    1  UNL1        0.0000
     18 C          -5.1018    1.2883    0.6970 C.ar    1  UNL1        0.0000
     19 C          -4.5026    0.8627   -0.4985 C.ar    1  UNL1        0.0000
     20 C          -5.1913    0.9929   -1.7162 C.ar    1  UNL1        0.0000
     21 C          -4.6220    0.5635   -2.9140 C.ar    1  UNL1        0.0000
     22 C          -3.3572   -0.0085   -2.9097 C.ar    1  UNL1        0.0000
     23 C          -2.6587   -0.1432   -1.7078 C.ar    1  UNL1        0.0000
     24 C          -3.2026    0.2960   -0.4759 C.ar    1  UNL1        0.0000
     25 C           4.6198   -0.5729    0.2752 C.ar    1  UNL1        0.0000
     26 H           6.8382   -2.0947   -0.5831 H       1  UNL1        0.0000
     27 H           7.1237   -0.8190    1.5576 H       1  UNL1        0.0000
     28 H           7.6553    0.9956   -1.0641 H       1  UNL1        0.0000
     29 H           5.3705    2.2593   -1.5126 H       1  UNL1        0.0000
     30 H           1.5656   -3.2937    2.3049 H       1  UNL1        0.0000
     31 H          -1.3087   -2.2047    2.0415 H       1  UNL1        0.0000
     32 H          -0.1040    1.2006   -0.1383 H       1  UNL1        0.0000
     33 H          -2.6494    0.5300    2.9097 H       1  UNL1        0.0000
     34 H          -4.9188    1.4910    2.8333 H       1  UNL1        0.0000
     35 H          -6.1000    1.7214    0.6880 H       1  UNL1        0.0000
     36 H          -6.1875    1.4300   -1.7402 H       1  UNL1        0.0000
     37 H          -5.1705    0.6690   -3.8462 H       1  UNL1        0.0000
     38 H          -2.9121   -0.3572   -3.8379 H       1  UNL1        0.0000
     39 H          -1.6791   -0.6153   -1.7417 H       1  UNL1        0.0000
@<TRIPOS>BOND
     1     1     2    1
     2     2     3    2
     3     3     4    1
     4     4     5   ar
     5     5     6   ar
     6     6     7   ar
     7     7     8   ar
     8     8     9   ar
     9     9    10   ar
    10    10    11   ar
    11    11    12   ar
    12    12    13   ar
    13    13    14   ar
    14    12    15    1
    15    15    16   ar
    16    16    17   ar
    17    17    18   ar
    18    18    19   ar
    19    19    20   ar
    20    20    21   ar
    21    21    22   ar
    22    22    23   ar
    23    23    24   ar
    24     7    25   ar
    25    25     1    1
    26    25     4   ar
    27    14     6   ar
    28    24    15   ar
    29    14    10   ar
    30    24    19   ar
    31     1    26    1
    32     1    27    1
    33     2    28    1
    34     3    29    1
    35     9    30    1
    36    11    31    1
    37    13    32    1
    38    16    33    1
    39    17    34    1
    40    18    35    1
    41    20    36    1
    42    21    37    1
    43    22    38    1
    44    23    39    1
