@<TRIPOS>MOLECULE
*****
 30 33 0 0 0
SMALL
GASTEIGER

@<TRIPOS>ATOM
      1 O           5.2370    2.0078   -0.3335 O.2     1  UNL1       -0.2873
      2 C           4.6747    0.9247   -0.2412 C.2     1  UNL1        0.1869
      3 C           5.4619   -0.3213   -0.1710 C.2     1  UNL1       -0.0107
      4 C           4.8758   -1.5164   -0.0700 C.2     1  UNL1       -0.0107
      5 C           3.4074   -1.6624   -0.0227 C.2     1  UNL1        0.1869
      6 O           2.9033   -2.7732    0.0702 O.2     1  UNL1       -0.2873
      7 C           2.5909   -0.4336   -0.0909 C.ar    1  UNL1        0.0331
      8 C           1.1916   -0.5252   -0.0492 C.ar    1  UNL1       -0.0405
      9 C           0.3815    0.6249   -0.1120 C.ar    1  UNL1        0.0079
     10 C          -1.0886    0.4614   -0.0633 C.ar    1  UNL1        0.1095
     11 N          -1.6836   -0.7110    0.0363 N.ar    1  UNL1       -0.2390
     12 C          -3.0593   -0.5644    0.0602 C.ar    1  UNL1        0.0789
     13 C          -4.0011   -1.6084    0.1592 C.ar    1  UNL1       -0.0352
     14 C          -5.3681   -1.3126    0.1721 C.ar    1  UNL1       -0.0597
     15 C          -5.8041    0.0059    0.0878 C.ar    1  UNL1       -0.0606
     16 C          -4.8889    1.0587   -0.0113 C.ar    1  UNL1       -0.0459
     17 C          -3.5187    0.7488   -0.0232 C.ar    1  UNL1        0.0395
     18 S          -2.1667    1.8033   -0.1333 S.2     1  UNL1       -0.0672
     19 C           1.0223    1.8717   -0.2181 C.ar    1  UNL1       -0.0513
     20 C           2.4191    1.9668   -0.2600 C.ar    1  UNL1       -0.0496
     21 C           3.2035    0.8120   -0.1962 C.ar    1  UNL1        0.0325
     22 H           6.5398   -0.2122   -0.2059 H       1  UNL1        0.0657
     23 H           5.4506   -2.4341   -0.0181 H       1  UNL1        0.0657
     24 H           0.7254   -1.5087    0.0335 H       1  UNL1        0.0631
     25 H          -3.6557   -2.6354    0.2248 H       1  UNL1        0.0639
     26 H          -6.0917   -2.1209    0.2487 H       1  UNL1        0.0618
     27 H          -6.8705    0.2223    0.0989 H       1  UNL1        0.0618
     28 H          -5.2305    2.0872   -0.0770 H       1  UNL1        0.0629
     29 H           0.4541    2.7981   -0.2707 H       1  UNL1        0.0624
     30 H           2.8886    2.9463   -0.3424 H       1  UNL1        0.0625
@<TRIPOS>BOND
     1     1     2    2
     2     2     3    1
     3     3     4    2
     4     4     5    1
     5     5     6    2
     6     5     7    1
     7     7     8   ar
     8     8     9   ar
     9     9    10    1
    10    10    11   ar
    11    11    12   ar
    12    12    13   ar
    13    13    14   ar
    14    14    15   ar
    15    15    16   ar
    16    16    17   ar
    17    17    18   ar
    18     9    19   ar
    19    19    20   ar
    20    20    21   ar
    21    21     2    1
    22    21     7   ar
    23    18    10   ar
    24    17    12   ar
    25     3    22    1
    26     4    23    1
    27     8    24    1
    28    13    25    1
    29    14    26    1
    30    15    27    1
    31    16    28    1
    32    19    29    1
    33    20    30    1
