@<TRIPOS>MOLECULE
*****
 32 36 0 0 0
SMALL
GASTEIGER

@<TRIPOS>ATOM
      1 O          -5.6708    1.8105   -0.3804 O.2     1  UNL1       -0.2873
      2 C          -5.1300    0.7179   -0.2720 C.2     1  UNL1        0.1869
      3 C          -5.9395   -0.5131   -0.1983 C.2     1  UNL1       -0.0107
      4 C          -5.3746   -1.7168   -0.0800 C.2     1  UNL1       -0.0107
      5 C          -3.9094   -1.8879   -0.0160 C.2     1  UNL1        0.1869
      6 O          -3.4272   -3.0067    0.0925 O.2     1  UNL1       -0.2873
      7 C          -3.0709   -0.6741   -0.0873 C.ar    1  UNL1        0.0331
      8 C          -1.6742   -0.7869   -0.0304 C.ar    1  UNL1       -0.0396
      9 C          -0.8524    0.3521   -0.0962 C.ar    1  UNL1        0.0181
     10 C           0.6063    0.1840   -0.0326 C.ar    1  UNL1        0.1422
     11 N           1.2369   -0.9769    0.0844 N.ar    1  UNL1       -0.2068
     12 C           2.5704   -0.6799    0.1054 C.ar    1  UNL1        0.1998
     13 N           3.6110   -1.5409    0.2118 N.ar    1  UNL1       -0.2020
     14 C           4.8303   -0.9491    0.2046 C.ar    1  UNL1        0.1992
     15 N           6.0551   -1.5530    0.2961 N.ar    1  UNL1       -0.2152
     16 C           6.9224   -0.5623    0.2440 C.ar    1  UNL1        0.0973
     17 N           6.3095    0.6578    0.1227 N.ar    1  UNL1       -0.3279
     18 C           4.9668    0.4326    0.0955 C.ar    1  UNL1        0.1791
     19 N           3.9594    1.3243   -0.0122 N.ar    1  UNL1       -0.2052
     20 C           2.7686    0.6901   -0.0006 C.ar    1  UNL1        0.1795
     21 N           1.5191    1.2203   -0.0868 N.ar    1  UNL1       -0.3214
     22 C          -1.4643    1.6090   -0.2204 C.ar    1  UNL1       -0.0504
     23 C          -2.8584    1.7239   -0.2774 C.ar    1  UNL1       -0.0496
     24 C          -3.6615    0.5808   -0.2107 C.ar    1  UNL1        0.0325
     25 H          -7.0150   -0.3866   -0.2454 H       1  UNL1        0.0657
     26 H          -5.9651   -2.6244   -0.0255 H       1  UNL1        0.0657
     27 H          -1.2199   -1.7749    0.0664 H       1  UNL1        0.0632
     28 H           7.9991   -0.6651    0.2892 H       1  UNL1        0.1028
     29 H           6.7572    1.5598    0.0637 H       1  UNL1        0.1683
     30 H           1.3173    2.2028   -0.1746 H       1  UNL1        0.1689
     31 H          -0.8817    2.5244   -0.2759 H       1  UNL1        0.0625
     32 H          -3.3146    2.7085   -0.3739 H       1  UNL1        0.0625
@<TRIPOS>BOND
     1     1     2    2
     2     2     3    1
     3     3     4    2
     4     4     5    1
     5     5     6    2
     6     5     7    1
     7     7     8   ar
     8     8     9   ar
     9     9    10    1
    10    10    11   ar
    11    11    12   ar
    12    12    13   ar
    13    13    14   ar
    14    14    15   ar
    15    15    16   ar
    16    16    17   ar
    17    17    18   ar
    18    18    19   ar
    19    19    20   ar
    20    20    21   ar
    21     9    22   ar
    22    22    23   ar
    23    23    24   ar
    24    24     2    1
    25    24     7   ar
    26    21    10   ar
    27    20    12   ar
    28    18    14   ar
    29     3    25    1
    30     4    26    1
    31     8    27    1
    32    16    28    1
    33    17    29    1
    34    21    30    1
    35    22    31    1
    36    23    32    1
