@<TRIPOS>MOLECULE
*****
 34 38 0 0 0
SMALL
GASTEIGER

@<TRIPOS>ATOM
      1 O           3.0166    0.9862   -1.6072 O.2     1  UNL1       -0.2698
      2 C           3.4919    0.6431   -0.5386 C.2     1  UNL1        0.2505
      3 C           4.9012    0.9013   -0.2183 C.2     1  UNL1        0.0060
      4 C           5.1836    0.2691    0.9172 C.2     1  UNL1        0.0060
      5 C           3.9596   -0.3986    1.3742 C.2     1  UNL1        0.2505
      6 N           2.9594   -0.0666    0.5021 N.am    1  UNL1       -0.2028
      7 C           1.6311   -0.5830    0.5496 C.ar    1  UNL1        0.0522
      8 C           1.4583   -1.9067    0.9898 C.ar    1  UNL1       -0.0387
      9 C           0.2062   -2.5156    0.9861 C.ar    1  UNL1       -0.0522
     10 C          -0.9193   -1.8151    0.5576 C.ar    1  UNL1       -0.0166
     11 C          -2.1716   -2.4423    0.5377 C.ar    1  UNL1       -0.0534
     12 C          -3.3101   -1.7508    0.1279 C.ar    1  UNL1       -0.0534
     13 C          -0.7923   -0.4641    0.1542 C.ar    1  UNL1       -0.0007
     14 C           0.4810    0.1749    0.1590 C.ar    1  UNL1        0.0052
     15 C           0.4946    1.5511   -0.1712 C.ar    1  UNL1       -0.0516
     16 C          -0.6560    2.2443   -0.5591 C.ar    1  UNL1       -0.0534
     17 C          -1.8902    1.5996   -0.6083 C.ar    1  UNL1       -0.0167
     18 C          -3.0494    2.2844   -1.0029 C.ar    1  UNL1       -0.0540
     19 C          -4.2813    1.6354   -1.0311 C.ar    1  UNL1       -0.0606
     20 C          -4.3688    0.2961   -0.6590 C.ar    1  UNL1       -0.0540
     21 C          -3.2250   -0.4106   -0.2588 C.ar    1  UNL1       -0.0167
     22 C          -1.9663    0.2397   -0.2395 C.ar    1  UNL1       -0.0024
     23 O           3.9488   -1.0912    2.3779 O.2     1  UNL1       -0.2698
     24 H           5.5551    1.4788   -0.8477 H       1  UNL1        0.0671
     25 H           6.1205    0.2144    1.4427 H       1  UNL1        0.0671
     26 H           2.3062   -2.5121    1.3036 H       1  UNL1        0.0637
     27 H           0.1265   -3.5502    1.3136 H       1  UNL1        0.0624
     28 H          -2.2743   -3.4815    0.8434 H       1  UNL1        0.0624
     29 H          -4.2665   -2.2688    0.1224 H       1  UNL1        0.0624
     30 H           1.4133    2.1285   -0.1260 H       1  UNL1        0.0624
     31 H          -0.5697    3.2970   -0.8193 H       1  UNL1        0.0624
     32 H          -2.9996    3.3321   -1.2911 H       1  UNL1        0.0624
     33 H          -5.1734    2.1743   -1.3391 H       1  UNL1        0.0618
     34 H          -5.3401   -0.1932   -0.6814 H       1  UNL1        0.0624
@<TRIPOS>BOND
     1     1     2    2
     2     2     3    1
     3     3     4    2
     4     4     5    1
     5     5     6   am
     6     6     7    1
     7     7     8   ar
     8     8     9   ar
     9     9    10   ar
    10    10    11   ar
    11    11    12   ar
    12    10    13   ar
    13    13    14   ar
    14    14    15   ar
    15    15    16   ar
    16    16    17   ar
    17    17    18   ar
    18    18    19   ar
    19    19    20   ar
    20    20    21   ar
    21    21    22   ar
    22     5    23    2
    23     6     2   am
    24    14     7   ar
    25    21    12   ar
    26    22    13   ar
    27    22    17   ar
    28     3    24    1
    29     4    25    1
    30     8    26    1
    31     9    27    1
    32    11    28    1
    33    12    29    1
    34    15    30    1
    35    16    31    1
    36    18    32    1
    37    19    33    1
    38    20    34    1
