@<TRIPOS>MOLECULE
*****
 29 31 0 0 0
SMALL
GASTEIGER

@<TRIPOS>ATOM
      1 O           4.0432    0.3414   -2.3129 O.2     1  UNL1       -0.2672
      2 C           4.2111    0.7103   -1.1654 C.2     1  UNL1        0.2790
      3 C           5.4456    1.3511   -0.6834 C.2     1  UNL1        0.0086
      4 C           5.1882    1.8720    0.5204 C.2     1  UNL1        0.0086
      5 C           3.7832    1.5756    0.8394 C.2     1  UNL1        0.2790
      6 N           3.3555    0.7365   -0.1252 N.am    1  UNL1       -0.0553
      7 O           1.9974    0.4827   -0.2945 O.3     1  UNL1       -0.3316
      8 C           1.6452   -0.7109    0.2641 C.2     1  UNL1        0.3692
      9 C           0.1900   -0.9017    0.1426 C.ar    1  UNL1        0.1457
     10 C          -0.6180    0.0663    0.6048 C.ar    1  UNL1       -0.0301
     11 C          -2.0602   -0.1054    0.5500 C.ar    1  UNL1        0.0186
     12 C          -2.9437    0.8776    0.9998 C.ar    1  UNL1       -0.0476
     13 C          -4.3228    0.6569    0.9328 C.ar    1  UNL1       -0.0194
     14 C          -4.8132   -0.5420    0.4201 C.ar    1  UNL1        0.1204
     15 O          -6.1657   -0.7052    0.3782 O.3     1  UNL1       -0.5066
     16 C          -3.9487   -1.5318   -0.0306 C.ar    1  UNL1        0.0229
     17 C          -2.5778   -1.2950    0.0425 C.ar    1  UNL1        0.1426
     18 O          -1.7200   -2.3095   -0.4234 O.2     1  UNL1       -0.4215
     19 C          -0.3348   -2.1578   -0.4210 C.ar    1  UNL1        0.3515
     20 O           0.3929   -3.0222   -0.8939 O.2     1  UNL1       -0.2443
     21 O           2.4034   -1.4961    0.8130 O.2     1  UNL1       -0.2426
     22 O           3.1675    2.0883    1.7565 O.2     1  UNL1       -0.2672
     23 H           6.3518    1.4024   -1.2609 H       1  UNL1        0.0672
     24 H           5.8350    2.4484    1.1579 H       1  UNL1        0.0672
     25 H          -0.2296    0.9807    1.0457 H       1  UNL1        0.0635
     26 H          -2.5780    1.8179    1.4054 H       1  UNL1        0.0626
     27 H          -5.0154    1.4189    1.2816 H       1  UNL1        0.0654
     28 H          -6.3674   -1.5794    0.0045 H       1  UNL1        0.2921
     29 H          -4.3146   -2.4701   -0.4327 H       1  UNL1        0.0691
@<TRIPOS>BOND
     1     1     2    2
     2     2     3    1
     3     3     4    2
     4     4     5    1
     5     5     6   am
     6     6     7    1
     7     7     8    1
     8     8     9    1
     9     9    10   ar
    10    10    11   ar
    11    11    12   ar
    12    12    13   ar
    13    13    14   ar
    14    14    15    1
    15    14    16   ar
    16    16    17   ar
    17    17    18   ar
    18    18    19   ar
    19    19    20    2
    20     8    21    2
    21     5    22    2
    22     6     2   am
    23    19     9   ar
    24    17    11   ar
    25     3    23    1
    26     4    24    1
    27    10    25    1
    28    12    26    1
    29    13    27    1
    30    15    28    1
    31    16    29    1
