@<TRIPOS>MOLECULE
*****
 32 34 0 0 0
SMALL
GASTEIGER

@<TRIPOS>ATOM
      1 O           4.9657   -1.8941   -0.6298 O.2     1  UNL1       -0.2672
      2 C           5.1985   -0.7645   -0.2405 C.2     1  UNL1        0.2790
      3 C           6.5435   -0.1676   -0.2147 C.2     1  UNL1        0.0086
      4 C           6.4608    0.9935    0.4422 C.2     1  UNL1        0.0086
      5 C           5.0604    1.1748    0.8568 C.2     1  UNL1        0.2790
      6 N           4.3772    0.1609    0.2918 N.am    1  UNL1       -0.0553
      7 O           3.0737   -0.1430    0.6649 O.3     1  UNL1       -0.3316
      8 C           2.1704    0.3061   -0.2436 C.2     1  UNL1        0.3692
      9 C           0.7755   -0.0149    0.1493 C.ar    1  UNL1        0.1457
     10 C          -0.1841    0.3999   -0.6975 C.ar    1  UNL1       -0.0301
     11 C          -1.5869    0.1444   -0.4204 C.ar    1  UNL1        0.0186
     12 C          -2.6065    0.5604   -1.2769 C.ar    1  UNL1       -0.0476
     13 C          -3.9458    0.2885   -0.9629 C.ar    1  UNL1       -0.0192
     14 C          -4.2723   -0.4005    0.2088 C.ar    1  UNL1        0.1236
     15 O          -5.5332   -0.7252    0.6253 O.3     1  UNL1       -0.4950
     16 C          -6.6128   -0.3258   -0.2098 C.3     1  UNL1        0.0788
     17 C          -3.2508   -0.8158    1.0642 C.ar    1  UNL1        0.0231
     18 C          -1.9259   -0.5382    0.7385 C.ar    1  UNL1        0.1426
     19 O          -0.9284   -0.9740    1.6269 O.2     1  UNL1       -0.4215
     20 C           0.4269   -0.7453    1.3903 C.ar    1  UNL1        0.3515
     21 O           1.2635   -1.1435    2.1917 O.2     1  UNL1       -0.2443
     22 O           2.4612    0.9085   -1.2727 O.2     1  UNL1       -0.2426
     23 O           4.6841    2.0574    1.6060 O.2     1  UNL1       -0.2672
     24 H           7.4116   -0.6440   -0.6348 H       1  UNL1        0.0672
     25 H           7.2455    1.6881    0.6847 H       1  UNL1        0.0672
     26 H           0.0527    0.9371   -1.6129 H       1  UNL1        0.0635
     27 H          -2.3778    1.0981   -2.1944 H       1  UNL1        0.0626
     28 H          -4.7093    0.6291   -1.6553 H       1  UNL1        0.0654
     29 H          -6.5487   -0.8035   -1.1930 H       1  UNL1        0.0660
     30 H          -7.5419   -0.6591    0.2625 H       1  UNL1        0.0660
     31 H          -6.6581    0.7645   -0.3015 H       1  UNL1        0.0660
     32 H          -3.4889   -1.3522    1.9785 H       1  UNL1        0.0691
@<TRIPOS>BOND
     1     1     2    2
     2     2     3    1
     3     3     4    2
     4     4     5    1
     5     5     6   am
     6     6     7    1
     7     7     8    1
     8     8     9    1
     9     9    10   ar
    10    10    11   ar
    11    11    12   ar
    12    12    13   ar
    13    13    14   ar
    14    14    15    1
    15    15    16    1
    16    14    17   ar
    17    17    18   ar
    18    18    19   ar
    19    19    20   ar
    20    20    21    2
    21     8    22    2
    22     5    23    2
    23     6     2   am
    24    20     9   ar
    25    18    11   ar
    26     3    24    1
    27     4    25    1
    28    10    26    1
    29    12    27    1
    30    13    28    1
    31    16    29    1
    32    16    30    1
    33    16    31    1
    34    17    32    1
