@<TRIPOS>MOLECULE
*****
 35 38 0 0 0
SMALL
GASTEIGER

@<TRIPOS>ATOM
      1 O           3.3039   -2.1711   -2.4226 O.2     1  UNL1       -0.2872
      2 C           3.3763   -1.3613   -1.5035 C.2     1  UNL1        0.1878
      3 C           4.6745   -1.1443   -0.8237 C.2     1  UNL1       -0.0137
      4 C           4.8364   -0.2005    0.1102 C.2     1  UNL1       -0.0504
      5 C           3.7582    0.7280    0.4655 C.ar    1  UNL1       -0.0170
      6 C           4.0438    1.8010    1.3239 C.ar    1  UNL1       -0.0540
      7 C           3.0682    2.7526    1.6137 C.ar    1  UNL1       -0.0612
      8 C           1.8108    2.6501    1.0302 C.ar    1  UNL1       -0.0611
      9 C           1.5179    1.5801    0.1801 C.ar    1  UNL1       -0.0533
     10 C           2.4669    0.5787   -0.0811 C.ar    1  UNL1       -0.0059
     11 C           2.2049   -0.5890   -0.9596 C.2     1  UNL1        0.0428
     12 C           1.0041   -1.1190   -1.2707 C.2     1  UNL1        0.0012
     13 N          -0.2660   -0.7949   -0.8375 N.pl3   1  UNL1       -0.3434
     14 C          -1.4363   -1.6464   -1.0253 C.3     1  UNL1        0.0525
     15 C          -2.6968   -1.0987   -0.4214 C.ar    1  UNL1        0.0775
     16 C          -3.9811   -1.0706   -0.9561 C.ar    1  UNL1        0.0345
     17 N          -4.7319   -0.4477   -0.0067 N.ar    1  UNL1       -0.3002
     18 C          -6.0469   -0.0764    0.1505 C.ar    1  UNL1        0.0183
     19 C          -6.2476    0.5343    1.3316 C.ar    1  UNL1       -0.0044
     20 S          -4.7678    0.6656    2.3021 S.2     1  UNL1       -0.0577
     21 C          -3.9040   -0.1380    1.0287 C.ar    1  UNL1        0.1776
     22 N          -2.6673   -0.5039    0.8405 N.ar    1  UNL1       -0.2247
     23 H           5.4818   -1.8021   -1.1219 H       1  UNL1        0.0656
     24 H           5.8009   -0.0760    0.5924 H       1  UNL1        0.0625
     25 H           5.0337    1.9152    1.7596 H       1  UNL1        0.0624
     26 H           3.2962    3.5849    2.2744 H       1  UNL1        0.0618
     27 H           1.0542    3.4058    1.2270 H       1  UNL1        0.0618
     28 H           0.5391    1.5624   -0.2922 H       1  UNL1        0.0624
     29 H           0.9674   -1.9716   -1.9517 H       1  UNL1        0.0785
     30 H          -0.2991   -0.3331    0.0729 H       1  UNL1        0.1459
     31 H          -1.2444   -2.6261   -0.5708 H       1  UNL1        0.0526
     32 H          -1.5915   -1.8087   -2.0988 H       1  UNL1        0.0526
     33 H          -4.3886   -1.4201   -1.8934 H       1  UNL1        0.0832
     34 H          -6.7773   -0.2785   -0.6168 H       1  UNL1        0.0819
     35 H          -7.1927    0.9195    1.6909 H       1  UNL1        0.0709
@<TRIPOS>BOND
     1     1     2    2
     2     2     3    1
     3     3     4    2
     4     4     5    1
     5     5     6   ar
     6     6     7   ar
     7     7     8   ar
     8     8     9   ar
     9     9    10   ar
    10    10    11    1
    11    11    12    2
    12    12    13    1
    13    13    14    1
    14    14    15    1
    15    15    16   ar
    16    16    17   ar
    17    17    18   ar
    18    18    19   ar
    19    19    20   ar
    20    20    21   ar
    21    21    22   ar
    22    11     2    1
    23    22    15   ar
    24    10     5   ar
    25    21    17   ar
    26     3    23    1
    27     4    24    1
    28     6    25    1
    29     7    26    1
    30     8    27    1
    31     9    28    1
    32    12    29    1
    33    13    30    1
    34    14    31    1
    35    14    32    1
    36    16    33    1
    37    18    34    1
    38    19    35    1
