@<TRIPOS>MOLECULE
*****
 37 40 0 0 0
SMALL
GASTEIGER

@<TRIPOS>ATOM
      1 O           0.0715   -0.7681    2.3155 O.2     1  UNL1       -0.2653
      2 C           0.4769   -0.5893    1.1713 C.ar    1  UNL1        0.2780
      3 C           1.8563   -0.5636    0.8199 C.ar    1  UNL1        0.1314
      4 N           2.9499   -0.7547    1.6167 N.ar    1  UNL1       -0.3487
      5 C           4.1024   -0.6388    0.8610 C.ar    1  UNL1        0.0492
      6 C           5.4449   -0.7548    1.2398 C.ar    1  UNL1       -0.0367
      7 C           6.4141   -0.5845    0.2450 C.ar    1  UNL1       -0.0458
      8 C           6.0470   -0.3097   -1.0716 C.ar    1  UNL1        0.0186
      9 BR          7.3922   -0.0865   -2.3846 Br      1  UNL1       -0.0503
     10 C           4.7044   -0.1953   -1.4427 C.ar    1  UNL1       -0.0365
     11 C           3.7133   -0.3634   -0.4574 C.ar    1  UNL1        0.0269
     12 C           2.3037   -0.3233   -0.4460 C.ar    1  UNL1        0.1032
     13 N           1.4456   -0.0775   -1.5184 N.ar    1  UNL1       -0.2348
     14 C           0.1903   -0.1174   -1.1891 C.ar    1  UNL1        0.0993
     15 N          -0.3452   -0.3706    0.0689 N.ar    1  UNL1       -0.2975
     16 C          -1.7875   -0.3431    0.2644 C.3     1  UNL1        0.0292
     17 C          -2.2647    1.0474    0.6957 C.3     1  UNL1       -0.0167
     18 C          -3.7489    1.0751    1.0576 C.3     1  UNL1        0.0258
     19 N          -4.6171    0.7782   -0.0614 N.ar    1  UNL1       -0.3368
     20 C          -5.2855   -0.3930   -0.2802 C.ar    1  UNL1        0.0240
     21 C          -5.9551   -0.2002   -1.4663 C.ar    1  UNL1        0.0454
     22 N          -5.7120    1.0544   -1.9624 N.ar    1  UNL1       -0.2441
     23 C          -4.9167    1.6269   -1.0877 C.ar    1  UNL1        0.0959
     24 H           2.9162   -0.9513    2.6086 H       1  UNL1        0.1661
     25 H           5.7320   -0.9686    2.2645 H       1  UNL1        0.0639
     26 H           7.4647   -0.6697    0.5133 H       1  UNL1        0.0629
     27 H           4.4150    0.0185   -2.4670 H       1  UNL1        0.0636
     28 H          -0.5702    0.0646   -1.9666 H       1  UNL1        0.1030
     29 H          -2.0568   -1.0853    1.0250 H       1  UNL1        0.0494
     30 H          -2.2714   -0.6369   -0.6736 H       1  UNL1        0.0494
     31 H          -2.0535    1.7698   -0.1028 H       1  UNL1        0.0300
     32 H          -1.6913    1.3782    1.5704 H       1  UNL1        0.0300
     33 H          -4.0282    2.0702    1.4232 H       1  UNL1        0.0492
     34 H          -3.9680    0.3587    1.8576 H       1  UNL1        0.0492
     35 H          -5.2376   -1.2369    0.3939 H       1  UNL1        0.0825
     36 H          -6.5998   -0.8958   -1.9881 H       1  UNL1        0.0845
     37 H          -4.5308    2.6362   -1.1547 H       1  UNL1        0.1029
@<TRIPOS>BOND
     1     1     2    2
     2     2     3   ar
     3     3     4   ar
     4     4     5   ar
     5     5     6   ar
     6     6     7   ar
     7     7     8   ar
     8     8     9    1
     9     8    10   ar
    10    10    11   ar
    11    11    12   ar
    12    12    13   ar
    13    13    14   ar
    14    14    15   ar
    15    15    16    1
    16    16    17    1
    17    17    18    1
    18    18    19    1
    19    19    20   ar
    20    20    21   ar
    21    21    22   ar
    22    22    23   ar
    23    15     2   ar
    24    23    19   ar
    25    12     3   ar
    26    11     5   ar
    27     4    24    1
    28     6    25    1
    29     7    26    1
    30    10    27    1
    31    14    28    1
    32    16    29    1
    33    16    30    1
    34    17    31    1
    35    17    32    1
    36    18    33    1
    37    18    34    1
    38    20    35    1
    39    21    36    1
    40    23    37    1
