@<TRIPOS>MOLECULE
*****
 37 40 0 0 0
SMALL
GASTEIGER

@<TRIPOS>ATOM
      1 O          -0.1170    1.7199   -1.4237 O.2     1  UNL1       -0.2653
      2 C           0.4762    1.2146   -0.4762 C.ar    1  UNL1        0.2780
      3 C           1.8518    0.8493   -0.5124 C.ar    1  UNL1        0.1314
      4 N           2.7525    0.9940   -1.5300 N.ar    1  UNL1       -0.3487
      5 C           3.9835    0.5015   -1.1358 C.ar    1  UNL1        0.0493
      6 C           5.1959    0.4383   -1.8347 C.ar    1  UNL1       -0.0350
      7 C           6.2912   -0.1232   -1.1715 C.ar    1  UNL1       -0.0245
      8 C           6.1678   -0.5967    0.1301 C.ar    1  UNL1        0.1242
      9 F           7.2396   -1.1287    0.7339 F       1  UNL1       -0.2055
     10 C           4.9604   -0.5331    0.8232 C.ar    1  UNL1       -0.0152
     11 C           3.8442    0.0282    0.1776 C.ar    1  UNL1        0.0286
     12 C           2.4998    0.2609    0.5337 C.ar    1  UNL1        0.1032
     13 N           1.8693   -0.0423    1.7409 N.ar    1  UNL1       -0.2348
     14 C           0.6183    0.3033    1.7649 C.ar    1  UNL1        0.0993
     15 N          -0.1084    0.9206    0.7535 N.ar    1  UNL1       -0.2975
     16 C          -1.5209    1.2128    0.9443 C.3     1  UNL1        0.0292
     17 C          -2.4025    0.0643    0.4541 C.3     1  UNL1       -0.0167
     18 C          -3.8810    0.4160    0.5867 C.3     1  UNL1        0.0258
     19 N          -4.7387   -0.6667    0.1518 N.ar    1  UNL1       -0.3368
     20 C          -5.1640   -0.8970   -1.1256 C.ar    1  UNL1        0.0240
     21 C          -5.9553   -2.0187   -1.0362 C.ar    1  UNL1        0.0454
     22 N          -6.0216   -2.4649    0.2587 N.ar    1  UNL1       -0.2441
     23 C          -5.2821   -1.6293    0.9521 C.ar    1  UNL1        0.0959
     24 H           2.5449    1.4003   -2.4332 H       1  UNL1        0.1661
     25 H           5.2893    0.8078   -2.8509 H       1  UNL1        0.0639
     26 H           7.2533   -0.1952   -1.6705 H       1  UNL1        0.0647
     27 H           4.8881   -0.9094    1.8377 H       1  UNL1        0.0653
     28 H           0.0291    0.1030    2.6750 H       1  UNL1        0.1030
     29 H          -1.7055    1.3920    2.0102 H       1  UNL1        0.0494
     30 H          -1.7704    2.1347    0.4060 H       1  UNL1        0.0494
     31 H          -2.1773   -0.8452    1.0258 H       1  UNL1        0.0300
     32 H          -2.1689   -0.1686   -0.5926 H       1  UNL1        0.0300
     33 H          -4.1376    0.6443    1.6278 H       1  UNL1        0.0492
     34 H          -4.1311    1.2957   -0.0176 H       1  UNL1        0.0492
     35 H          -4.8809   -0.2749   -1.9631 H       1  UNL1        0.0825
     36 H          -6.4808   -2.5277   -1.8338 H       1  UNL1        0.0845
     37 H          -5.1112   -1.6800    2.0196 H       1  UNL1        0.1029
@<TRIPOS>BOND
     1     1     2    2
     2     2     3   ar
     3     3     4   ar
     4     4     5   ar
     5     5     6   ar
     6     6     7   ar
     7     7     8   ar
     8     8     9    1
     9     8    10   ar
    10    10    11   ar
    11    11    12   ar
    12    12    13   ar
    13    13    14   ar
    14    14    15   ar
    15    15    16    1
    16    16    17    1
    17    17    18    1
    18    18    19    1
    19    19    20   ar
    20    20    21   ar
    21    21    22   ar
    22    22    23   ar
    23    15     2   ar
    24    23    19   ar
    25    12     3   ar
    26    11     5   ar
    27     4    24    1
    28     6    25    1
    29     7    26    1
    30    10    27    1
    31    14    28    1
    32    16    29    1
    33    16    30    1
    34    17    31    1
    35    17    32    1
    36    18    33    1
    37    18    34    1
    38    20    35    1
    39    21    36    1
    40    23    37    1
