@<TRIPOS>MOLECULE
*****
 32 34 0 0 0
SMALL
GASTEIGER

@<TRIPOS>ATOM
      1 O           0.0104   -1.7188    0.1097 O.2     1  UNL1       -0.2864
      2 C          -0.3209   -0.5469   -0.0240 C.ar    1  UNL1        0.2004
      3 C          -1.7408   -0.1466   -0.2220 C.ar    1  UNL1        0.0677
      4 C          -2.8032   -1.0768   -0.2677 C.ar    1  UNL1       -0.0326
      5 C          -2.6038   -2.5607   -0.1206 C.3     1  UNL1       -0.0388
      6 C          -4.1128   -0.5993   -0.4591 C.ar    1  UNL1       -0.0164
      7 C          -4.3599    0.7615   -0.6011 C.ar    1  UNL1        0.1206
      8 O          -5.6515    1.1555   -0.7839 O.3     1  UNL1       -0.5066
      9 C          -3.3209    1.6782   -0.5569 C.ar    1  UNL1        0.0228
     10 C          -2.0148    1.2200   -0.3672 C.ar    1  UNL1        0.1421
     11 O          -1.0470    2.1932   -0.3368 O.2     1  UNL1       -0.4620
     12 C           0.2519    1.8005   -0.1552 C.ar    1  UNL1        0.1038
     13 C           0.6932    0.5463    0.0098 C.ar    1  UNL1        0.0643
     14 C           2.1344    0.2836    0.1802 C.ar    1  UNL1       -0.0110
     15 C           2.8753    0.9423    1.1760 C.ar    1  UNL1       -0.0504
     16 C           4.2442    0.7003    1.3269 C.ar    1  UNL1       -0.0196
     17 C           4.8755   -0.2047    0.4810 C.ar    1  UNL1        0.1169
     18 O           6.2076   -0.4710    0.5916 O.3     1  UNL1       -0.5068
     19 C           4.1614   -0.8713   -0.5060 C.ar    1  UNL1       -0.0196
     20 C           2.7935   -0.6299   -0.6548 C.ar    1  UNL1       -0.0504
     21 H          -3.5548   -3.1011   -0.1852 H       1  UNL1        0.0278
     22 H          -1.9645   -2.9435   -0.9223 H       1  UNL1        0.0278
     23 H          -2.1697   -2.7949    0.8563 H       1  UNL1        0.0278
     24 H          -4.9525   -1.2908   -0.4989 H       1  UNL1        0.0657
     25 H          -5.6795    2.1228   -0.8712 H       1  UNL1        0.2921
     26 H          -3.5036    2.7423   -0.6670 H       1  UNL1        0.0691
     27 H           0.8976    2.6706   -0.1725 H       1  UNL1        0.1037
     28 H           2.3898    1.6424    1.8526 H       1  UNL1        0.0625
     29 H           4.7930    1.2202    2.1056 H       1  UNL1        0.0654
     30 H           6.5636    0.0292    1.3438 H       1  UNL1        0.2921
     31 H           4.6632   -1.5832   -1.1551 H       1  UNL1        0.0654
     32 H           2.2457   -1.1693   -1.4251 H       1  UNL1        0.0625
@<TRIPOS>BOND
     1     1     2    2
     2     2     3   ar
     3     3     4   ar
     4     4     5    1
     5     4     6   ar
     6     6     7   ar
     7     7     8    1
     8     7     9   ar
     9     9    10   ar
    10    10    11   ar
    11    11    12   ar
    12    12    13   ar
    13    13    14    1
    14    14    15   ar
    15    15    16   ar
    16    16    17   ar
    17    17    18    1
    18    17    19   ar
    19    19    20   ar
    20    13     2   ar
    21    10     3   ar
    22    20    14   ar
    23     5    21    1
    24     5    22    1
    25     5    23    1
    26     6    24    1
    27     8    25    1
    28     9    26    1
    29    12    27    1
    30    15    28    1
    31    16    29    1
    32    18    30    1
    33    19    31    1
    34    20    32    1
