@<TRIPOS>MOLECULE
*****
 24 25 0 0 0
SMALL
GASTEIGER

@<TRIPOS>ATOM
      1 O           1.6326    1.8469    0.9619 O.2     1  UNL1       -0.2863
      2 C           1.6911    0.8415    0.2653 C.ar    1  UNL1        0.2028
      3 C           0.4804    0.0879   -0.1089 C.ar    1  UNL1        0.0683
      4 C          -0.7823    0.5124    0.3312 C.ar    1  UNL1       -0.0019
      5 C          -1.9142   -0.2140   -0.0336 C.ar    1  UNL1        0.1622
      6 O          -3.2079    0.0734    0.3161 O.3     1  UNL1       -0.4914
      7 C          -3.4093    1.2247    1.1297 C.3     1  UNL1        0.0790
      8 C          -1.7577   -1.3544   -0.8344 C.ar    1  UNL1        0.1620
      9 O          -2.8523   -2.0862   -1.2074 O.3     1  UNL1       -0.5032
     10 C          -0.5086   -1.7795   -1.2734 C.ar    1  UNL1        0.0265
     11 C           0.6176   -1.0504   -0.9060 C.ar    1  UNL1        0.1421
     12 O           1.8333   -1.5003   -1.3580 O.2     1  UNL1       -0.4619
     13 C           2.9515   -0.7848   -0.9991 C.ar    1  UNL1        0.1064
     14 C           2.9714    0.3200   -0.2435 C.ar    1  UNL1        0.0962
     15 C           4.2559    0.9821    0.0592 C.2     1  UNL1        0.1568
     16 O           5.3359    0.5704   -0.3506 O.2     1  UNL1       -0.2955
     17 H          -0.8472    1.4025    0.9495 H       1  UNL1        0.0663
     18 H          -3.0832    2.1337    0.6137 H       1  UNL1        0.0660
     19 H          -2.9082    1.1160    2.0972 H       1  UNL1        0.0660
     20 H          -4.4832    1.3156    1.3188 H       1  UNL1        0.0660
     21 H          -3.6179   -1.6309   -0.8047 H       1  UNL1        0.2923
     22 H          -0.4207   -2.6671   -1.8927 H       1  UNL1        0.0692
     23 H           3.8390   -1.2451   -1.4195 H       1  UNL1        0.1038
     24 H           4.1843    1.8857    0.6876 H       1  UNL1        0.1084
@<TRIPOS>BOND
     1     1     2    2
     2     2     3   ar
     3     3     4   ar
     4     4     5   ar
     5     5     6    1
     6     6     7    1
     7     5     8   ar
     8     8     9    1
     9     8    10   ar
    10    10    11   ar
    11    11    12   ar
    12    12    13   ar
    13    13    14   ar
    14    14    15    1
    15    15    16    2
    16    14     2   ar
    17    11     3   ar
    18     4    17    1
    19     7    18    1
    20     7    19    1
    21     7    20    1
    22     9    21    1
    23    10    22    1
    24    13    23    1
    25    15    24    1
