@<TRIPOS>MOLECULE
*****
 48 55 0 0 0
SMALL
GASTEIGER

@<TRIPOS>ATOM
      1 SI         -1.6509    0.5867    0.9805 Si      1  UNL1        0.0000
      2 C          -2.6448   -0.7209    0.0873 C.2     1  UNL1        0.0000
      3 C          -1.8567   -1.5193   -0.6569 C.2     1  UNL1        0.0000
      4 C          -0.4342   -1.1562   -0.6053 C.ar    1  UNL1        0.0000
      5 N           0.4352   -1.8550   -1.3374 N.ar    1  UNL1        0.0000
      6 C           1.7376   -1.4771   -1.2345 C.ar    1  UNL1        0.0000
      7 C           2.2873   -0.4630   -0.4254 C.ar    1  UNL1        0.0000
      8 C           1.2871    0.3028    0.2762 C.ar    1  UNL1        0.0000
      9 C          -0.0797   -0.0715    0.2041 C.ar    1  UNL1        0.0000
     10 C           1.8875    1.4017    0.9511 C.ar    1  UNL1        0.0000
     11 C           1.2784    2.3791    1.7020 C.ar    1  UNL1        0.0000
     12 O           2.1994    3.2766    2.1558 O.2     1  UNL1        0.0000
     13 C           3.4136    2.8774    1.6907 C.ar    1  UNL1        0.0000
     14 C           3.2778    1.7321    0.9442 C.ar    1  UNL1        0.0000
     15 C           4.3088    1.0148    0.3111 C.ar    1  UNL1        0.0000
     16 C           5.6959    1.4390    0.3509 C.ar    1  UNL1        0.0000
     17 C           6.7422    0.7171   -0.2306 C.ar    1  UNL1        0.0000
     18 C           6.2863   -0.4716   -0.7828 C.ar    1  UNL1        0.0000
     19 C           7.1790   -1.3616   -1.3299 C.ar    1  UNL1        0.0000
     20 S           6.3953   -2.7932   -1.8351 S.2     1  UNL1        0.0000
     21 C           4.8637   -2.2143   -1.3073 C.ar    1  UNL1        0.0000
     22 C           4.9020   -0.9193   -0.8357 C.ar    1  UNL1        0.0000
     23 C           3.7644   -0.1707   -0.3446 C.ar    1  UNL1        0.0000
     24 C          -4.0717   -0.8753    0.2648 C.ar    1  UNL1        0.0000
     25 C          -4.6850   -1.9851    0.8993 C.ar    1  UNL1        0.0000
     26 C          -6.1061   -2.1282    1.0813 C.ar    1  UNL1        0.0000
     27 C          -7.0633   -1.1849    0.6426 C.ar    1  UNL1        0.0000
     28 C          -6.4416   -0.1165    0.0100 C.ar    1  UNL1        0.0000
     29 C          -7.0759    0.9592   -0.5544 C.ar    1  UNL1        0.0000
     30 N          -6.0944    1.7630   -1.0938 N.ar    1  UNL1        0.0000
     31 C          -4.8480    1.2102   -0.8764 C.ar    1  UNL1        0.0000
     32 C          -5.0333    0.0421   -0.1760 C.ar    1  UNL1        0.0000
     33 H          -1.9369    1.9730    0.5268 H       1  UNL1        0.0000
     34 H          -1.6430    0.4201    2.4564 H       1  UNL1        0.0000
     35 H          -2.1849   -2.3602   -1.2517 H       1  UNL1        0.0000
     36 H           2.3534   -2.0348   -1.9292 H       1  UNL1        0.0000
     37 H           0.2692    2.6056    2.0076 H       1  UNL1        0.0000
     38 H           4.2419    3.5070    1.9829 H       1  UNL1        0.0000
     39 H           5.9574    2.3672    0.8574 H       1  UNL1        0.0000
     40 H           7.7736    1.0420   -0.1924 H       1  UNL1        0.0000
     41 H           8.2513   -1.2679   -1.4364 H       1  UNL1        0.0000
     42 H           4.0488   -2.9155   -1.3703 H       1  UNL1        0.0000
     43 H          -4.0482   -2.7840    1.2818 H       1  UNL1        0.0000
     44 H          -6.4636   -3.0251    1.5884 H       1  UNL1        0.0000
     45 H          -8.1279   -1.3055    0.7801 H       1  UNL1        0.0000
     46 H          -8.1197    1.2294   -0.6376 H       1  UNL1        0.0000
     47 H          -6.2634    2.6275   -1.5915 H       1  UNL1        0.0000
     48 H          -3.9637    1.7031   -1.2556 H       1  UNL1        0.0000
@<TRIPOS>BOND
     1     1     2    1
     2     2     3    2
     3     3     4    1
     4     4     5   ar
     5     5     6   ar
     6     6     7   ar
     7     7     8   ar
     8     8     9   ar
     9     8    10   ar
    10    10    11   ar
    11    11    12   ar
    12    12    13   ar
    13    13    14   ar
    14    14    15   ar
    15    15    16   ar
    16    16    17   ar
    17    17    18   ar
    18    18    19   ar
    19    19    20   ar
    20    20    21   ar
    21    21    22   ar
    22    22    23   ar
    23     2    24    1
    24    24    25   ar
    25    25    26   ar
    26    26    27   ar
    27    27    28   ar
    28    28    29   ar
    29    29    30   ar
    30    30    31   ar
    31    31    32   ar
    32     9     1    1
    33    14    10   ar
    34    23    15   ar
    35    32    24   ar
    36     9     4   ar
    37    22    18   ar
    38    32    28   ar
    39    23     7   ar
    40     1    33    1
    41     1    34    1
    42     3    35    1
    43     6    36    1
    44    11    37    1
    45    13    38    1
    46    16    39    1
    47    17    40    1
    48    19    41    1
    49    21    42    1
    50    25    43    1
    51    26    44    1
    52    27    45    1
    53    29    46    1
    54    30    47    1
    55    31    48    1
