@<TRIPOS>MOLECULE
*****
 38 43 0 0 0
SMALL
GASTEIGER

@<TRIPOS>ATOM
      1 SI         -5.1055    0.4864    0.3789 Si      1  UNL1        0.0000
      2 C          -5.2772    2.3668    0.7136 C.2     1  UNL1        0.0000
      3 C          -4.0719    2.9726    0.7709 C.2     1  UNL1        0.0000
      4 C          -3.0125    2.0461    0.5669 C.ar    1  UNL1        0.0000
      5 O          -1.6663    2.2375    0.5464 O.2     1  UNL1        0.0000
      6 C          -1.0950    1.0163    0.3106 C.ar    1  UNL1        0.0000
      7 C           0.2581    0.7608    0.2120 C.ar    1  UNL1        0.0000
      8 SI          1.6283    1.9710    0.3683 Si      1  UNL1        0.0000
      9 C           2.8153    0.5361    0.0710 C.2     1  UNL1        0.0000
     10 C           2.1802   -0.6411   -0.1090 C.2     1  UNL1        0.0000
     11 C           0.6989   -0.5577   -0.0355 C.ar    1  UNL1        0.0000
     12 C          -0.2233   -1.6144   -0.1829 C.ar    1  UNL1        0.0000
     13 C           0.1596   -2.9510   -0.4313 C.ar    1  UNL1        0.0000
     14 C          -0.7859   -3.9699   -0.5713 C.ar    1  UNL1        0.0000
     15 C          -2.1407   -3.6824   -0.4670 C.ar    1  UNL1        0.0000
     16 C          -2.5580   -2.3748   -0.2223 C.ar    1  UNL1        0.0000
     17 C          -1.6197   -1.3297   -0.0775 C.ar    1  UNL1        0.0000
     18 C          -2.0608    0.0089    0.1736 C.ar    1  UNL1        0.0000
     19 C          -3.2626    0.7040    0.3429 C.ar    1  UNL1        0.0000
     20 C           4.2197    0.7245    0.0481 C.ar    1  UNL1        0.0000
     21 C           5.2467   -0.1962   -0.1530 C.ar    1  UNL1        0.0000
     22 C           6.4820    0.4905   -0.0823 C.ar    1  UNL1        0.0000
     23 C           6.1645    1.8005    0.1585 C.ar    1  UNL1        0.0000
     24 O           4.8223    1.9531    0.2383 O.2     1  UNL1        0.0000
     25 H          -5.6106   -0.3021    1.5298 H       1  UNL1        0.0000
     26 H          -5.7092    0.1264   -0.9278 H       1  UNL1        0.0000
     27 H          -6.2484    2.8198    0.8316 H       1  UNL1        0.0000
     28 H          -3.9023    4.0257    0.9478 H       1  UNL1        0.0000
     29 H           1.7547    2.5358    1.7388 H       1  UNL1        0.0000
     30 H           1.6562    2.9671   -0.7363 H       1  UNL1        0.0000
     31 H           2.6778   -1.5818   -0.2928 H       1  UNL1        0.0000
     32 H           1.2079   -3.2224   -0.5206 H       1  UNL1        0.0000
     33 H          -0.4594   -4.9892   -0.7621 H       1  UNL1        0.0000
     34 H          -2.8752   -4.4763   -0.5761 H       1  UNL1        0.0000
     35 H          -3.6235   -2.1886   -0.1472 H       1  UNL1        0.0000
     36 H           5.1141   -1.2540   -0.3320 H       1  UNL1        0.0000
     37 H           7.4754    0.0801   -0.1931 H       1  UNL1        0.0000
     38 H           6.7464    2.7016    0.2925 H       1  UNL1        0.0000
@<TRIPOS>BOND
     1     1     2    1
     2     2     3    2
     3     3     4    1
     4     4     5   ar
     5     5     6   ar
     6     6     7   ar
     7     7     8    1
     8     8     9    1
     9     9    10    2
    10    10    11    1
    11    11    12   ar
    12    12    13   ar
    13    13    14   ar
    14    14    15   ar
    15    15    16   ar
    16    16    17   ar
    17    17    18   ar
    18    18    19   ar
    19     9    20    1
    20    20    21   ar
    21    21    22   ar
    22    22    23   ar
    23    23    24   ar
    24    19     1    1
    25    24    20   ar
    26    19     4   ar
    27    18     6   ar
    28    11     7   ar
    29    17    12   ar
    30     1    25    1
    31     1    26    1
    32     2    27    1
    33     3    28    1
    34     8    29    1
    35     8    30    1
    36    10    31    1
    37    13    32    1
    38    14    33    1
    39    15    34    1
    40    16    35    1
    41    21    36    1
    42    22    37    1
    43    23    38    1
