@<TRIPOS>MOLECULE
*****
 33 35 0 0 0
SMALL
GASTEIGER

@<TRIPOS>ATOM
      1 O           0.0922   -1.3518   -0.7570 O.2     1  UNL1       -0.2864
      2 C          -0.0228   -0.3447   -0.0685 C.ar    1  UNL1        0.2003
      3 C          -1.3580    0.1568    0.3069 C.ar    1  UNL1        0.0682
      4 C          -2.5133   -0.5101   -0.1240 C.ar    1  UNL1       -0.0019
      5 C          -3.7726   -0.0261    0.2373 C.ar    1  UNL1        0.1622
      6 O          -4.9653   -0.5936   -0.1248 O.3     1  UNL1       -0.4914
      7 C          -4.9173   -1.7635   -0.9302 C.3     1  UNL1        0.0790
      8 C          -3.8516    1.1295    1.0324 C.ar    1  UNL1        0.1620
      9 O          -5.0844    1.6079    1.3897 O.3     1  UNL1       -0.5032
     10 C          -2.7022    1.7942    1.4618 C.ar    1  UNL1        0.0265
     11 C          -1.4525    1.3010    1.0940 C.ar    1  UNL1        0.1421
     12 O          -0.3534    1.9879    1.5407 O.2     1  UNL1       -0.4620
     13 C           0.8850    1.5115    1.1845 C.ar    1  UNL1        0.1038
     14 C           1.1472    0.4343    0.4273 C.ar    1  UNL1        0.0643
     15 C           2.5388    0.0391    0.1419 C.ar    1  UNL1       -0.0110
     16 C           3.4608    0.9642   -0.3765 C.ar    1  UNL1       -0.0504
     17 C           4.7825    0.5887   -0.6367 C.ar    1  UNL1       -0.0196
     18 C           5.1850   -0.7170   -0.3803 C.ar    1  UNL1        0.1169
     19 O           6.4628   -1.1270   -0.6180 O.3     1  UNL1       -0.5068
     20 C           4.2891   -1.6495    0.1259 C.ar    1  UNL1       -0.0196
     21 C           2.9686   -1.2735    0.3839 C.ar    1  UNL1       -0.0504
     22 H          -2.3987   -1.3989   -0.7370 H       1  UNL1        0.0663
     23 H          -4.4113   -2.5821   -0.4078 H       1  UNL1        0.0660
     24 H          -4.4456   -1.5583   -1.8969 H       1  UNL1        0.0660
     25 H          -5.9471   -2.0790   -1.1234 H       1  UNL1        0.0660
     26 H          -4.9803    2.4011    1.9376 H       1  UNL1        0.2923
     27 H          -2.7651    2.6866    2.0761 H       1  UNL1        0.0692
     28 H           1.6498    2.1424    1.6223 H       1  UNL1        0.1037
     29 H           3.1554    1.9853   -0.5949 H       1  UNL1        0.0625
     30 H           5.4740    1.3221   -1.0391 H       1  UNL1        0.0654
     31 H           6.9609   -0.3877   -1.0030 H       1  UNL1        0.2921
     32 H           4.6124   -2.6694    0.3139 H       1  UNL1        0.0654
     33 H           2.2772   -2.0201    0.7701 H       1  UNL1        0.0625
@<TRIPOS>BOND
     1     1     2    2
     2     2     3   ar
     3     3     4   ar
     4     4     5   ar
     5     5     6    1
     6     6     7    1
     7     5     8   ar
     8     8     9    1
     9     8    10   ar
    10    10    11   ar
    11    11    12   ar
    12    12    13   ar
    13    13    14   ar
    14    14    15    1
    15    15    16   ar
    16    16    17   ar
    17    17    18   ar
    18    18    19    1
    19    18    20   ar
    20    20    21   ar
    21    14     2   ar
    22    11     3   ar
    23    21    15   ar
    24     4    22    1
    25     7    23    1
    26     7    24    1
    27     7    25    1
    28     9    26    1
    29    10    27    1
    30    13    28    1
    31    16    29    1
    32    17    30    1
    33    19    31    1
    34    20    32    1
    35    21    33    1
