@<TRIPOS>MOLECULE
*****
 35 37 0 0 0
SMALL
GASTEIGER

@<TRIPOS>ATOM
      1 O          -0.0946    1.2986    1.2773 O.2     1  UNL1       -0.2867
      2 C          -0.2205    0.1479    0.8768 C.ar    1  UNL1        0.1960
      3 C          -1.4716   -0.3051    0.2418 C.ar    1  UNL1        0.0679
      4 C          -2.5243    0.5941    0.0261 C.ar    1  UNL1       -0.0020
      5 C          -3.7058    0.1504   -0.5722 C.ar    1  UNL1        0.1622
      6 O          -4.7972    0.9362   -0.8324 O.3     1  UNL1       -0.4914
      7 C          -4.7178    2.3085   -0.4720 C.3     1  UNL1        0.0790
      8 C          -3.8111   -1.2003   -0.9453 C.ar    1  UNL1        0.1620
      9 O          -4.9684   -1.6398   -1.5320 O.3     1  UNL1       -0.5032
     10 C          -2.7636   -2.0968   -0.7290 C.ar    1  UNL1        0.0265
     11 C          -1.5903   -1.6414   -0.1323 C.ar    1  UNL1        0.1421
     12 O          -0.5904   -2.5599    0.0644 O.2     1  UNL1       -0.4623
     13 C           0.5831   -2.1137    0.6208 C.ar    1  UNL1        0.0996
     14 C           0.8567   -0.8618    1.0148 C.ar    1  UNL1        0.0390
     15 C           2.1597   -0.4411    1.6283 C.3     1  UNL1        0.0041
     16 C           3.1425    0.0957    0.6125 C.ar    1  UNL1       -0.0428
     17 C           4.0673   -0.7575   -0.0073 C.ar    1  UNL1       -0.0583
     18 C           4.9607   -0.2619   -0.9586 C.ar    1  UNL1       -0.0615
     19 C           4.9361    1.0881   -1.3035 C.ar    1  UNL1       -0.0617
     20 C           4.0175    1.9437   -0.6990 C.ar    1  UNL1       -0.0615
     21 C           3.1240    1.4506    0.2528 C.ar    1  UNL1       -0.0583
     22 H          -2.3931    1.6269    0.3335 H       1  UNL1        0.0663
     23 H          -4.5931    2.4262    0.6094 H       1  UNL1        0.0660
     24 H          -5.6638    2.7827   -0.7508 H       1  UNL1        0.0660
     25 H          -3.9174    2.8155   -1.0210 H       1  UNL1        0.0660
     26 H          -4.8900   -2.5838   -1.7393 H       1  UNL1        0.2923
     27 H          -2.8469   -3.1397   -1.0166 H       1  UNL1        0.0692
     28 H           1.2898   -2.9312    0.6935 H       1  UNL1        0.1033
     29 H           1.9974    0.3050    2.4166 H       1  UNL1        0.0364
     30 H           2.6188   -1.2924    2.1497 H       1  UNL1        0.0364
     31 H           4.0994   -1.8141    0.2473 H       1  UNL1        0.0620
     32 H           5.6759   -0.9293   -1.4322 H       1  UNL1        0.0618
     33 H           5.6309    1.4735   -2.0449 H       1  UNL1        0.0618
     34 H           3.9932    2.9961   -0.9695 H       1  UNL1        0.0618
     35 H           2.4070    2.1302    0.7114 H       1  UNL1        0.0620
@<TRIPOS>BOND
     1     1     2    2
     2     2     3   ar
     3     3     4   ar
     4     4     5   ar
     5     5     6    1
     6     6     7    1
     7     5     8   ar
     8     8     9    1
     9     8    10   ar
    10    10    11   ar
    11    11    12   ar
    12    12    13   ar
    13    13    14   ar
    14    14    15    1
    15    15    16    1
    16    16    17   ar
    17    17    18   ar
    18    18    19   ar
    19    19    20   ar
    20    20    21   ar
    21    14     2   ar
    22    11     3   ar
    23    21    16   ar
    24     4    22    1
    25     7    23    1
    26     7    24    1
    27     7    25    1
    28     9    26    1
    29    10    27    1
    30    13    28    1
    31    15    29    1
    32    15    30    1
    33    17    31    1
    34    18    32    1
    35    19    33    1
    36    20    34    1
    37    21    35    1
