@<TRIPOS>MOLECULE
*****
 38 40 0 0 0
SMALL
GASTEIGER

@<TRIPOS>ATOM
      1 O          -0.6077   -1.2731    0.0833 O.2     1  UNL1       -0.2868
      2 C          -0.7988   -0.1070    0.4054 C.ar    1  UNL1        0.1957
      3 C          -2.1539    0.4725    0.4149 C.ar    1  UNL1        0.0679
      4 C          -3.2594   -0.3062    0.0409 C.ar    1  UNL1       -0.0020
      5 C          -4.5327    0.2595    0.0557 C.ar    1  UNL1        0.1622
      6 O          -5.7026   -0.3706   -0.2812 O.3     1  UNL1       -0.4914
      7 C          -5.5995   -1.7334   -0.6817 C.3     1  UNL1        0.0790
      8 C          -4.6734    1.5988    0.4465 C.ar    1  UNL1        0.1620
      9 O          -5.9125    2.1797    0.4700 O.3     1  UNL1       -0.5032
     10 C          -3.5811    2.3746    0.8185 C.ar    1  UNL1        0.0265
     11 C          -2.3125    1.8035    0.8015 C.ar    1  UNL1        0.1421
     12 O          -1.2595    2.5989    1.1761 O.2     1  UNL1       -0.4623
     13 C          -0.0031    2.0445    1.1588 C.ar    1  UNL1        0.0993
     14 C           0.3124    0.7919    0.8027 C.ar    1  UNL1        0.0350
     15 C           1.7085    0.2392    0.8209 C.3     1  UNL1       -0.0171
     16 C           2.2878    0.0806   -0.5893 C.3     1  UNL1       -0.0235
     17 C           3.7001   -0.4501   -0.5500 C.ar    1  UNL1       -0.0470
     18 C           4.7934    0.4257   -0.5702 C.ar    1  UNL1       -0.0586
     19 C           6.0967   -0.0709   -0.5143 C.ar    1  UNL1       -0.0615
     20 C           6.3181   -1.4447   -0.4338 C.ar    1  UNL1       -0.0617
     21 C           5.2369   -2.3236   -0.4080 C.ar    1  UNL1       -0.0615
     22 C           3.9332   -1.8293   -0.4640 C.ar    1  UNL1       -0.0586
     23 H          -3.0924   -1.3378   -0.2527 H       1  UNL1        0.0663
     24 H          -4.9931   -1.8331   -1.5880 H       1  UNL1        0.0660
     25 H          -5.2057   -2.3540    0.1300 H       1  UNL1        0.0660
     26 H          -6.6076   -2.0895   -0.9144 H       1  UNL1        0.0660
     27 H          -6.5300    1.4794    0.1805 H       1  UNL1        0.2923
     28 H          -3.7222    3.4088    1.1169 H       1  UNL1        0.0692
     29 H           0.7260    2.7786    1.4799 H       1  UNL1        0.1033
     30 H           2.3606    0.8984    1.4100 H       1  UNL1        0.0318
     31 H           1.7124   -0.7237    1.3480 H       1  UNL1        0.0318
     32 H           2.2753    1.0447   -1.1145 H       1  UNL1        0.0316
     33 H           1.6707   -0.5953   -1.1946 H       1  UNL1        0.0316
     34 H           4.6373    1.5001   -0.6311 H       1  UNL1        0.0620
     35 H           6.9400    0.6143   -0.5337 H       1  UNL1        0.0618
     36 H           7.3331   -1.8305   -0.3907 H       1  UNL1        0.0618
     37 H           5.4081   -3.3949   -0.3438 H       1  UNL1        0.0618
     38 H           3.0971   -2.5258   -0.4403 H       1  UNL1        0.0620
@<TRIPOS>BOND
     1     1     2    2
     2     2     3   ar
     3     3     4   ar
     4     4     5   ar
     5     5     6    1
     6     6     7    1
     7     5     8   ar
     8     8     9    1
     9     8    10   ar
    10    10    11   ar
    11    11    12   ar
    12    12    13   ar
    13    13    14   ar
    14    14    15    1
    15    15    16    1
    16    16    17    1
    17    17    18   ar
    18    18    19   ar
    19    19    20   ar
    20    20    21   ar
    21    21    22   ar
    22    14     2   ar
    23    11     3   ar
    24    22    17   ar
    25     4    23    1
    26     7    24    1
    27     7    25    1
    28     7    26    1
    29     9    27    1
    30    10    28    1
    31    13    29    1
    32    15    30    1
    33    15    31    1
    34    16    32    1
    35    16    33    1
    36    18    34    1
    37    19    35    1
    38    20    36    1
    39    21    37    1
    40    22    38    1
