@<TRIPOS>MOLECULE
*****
 31 33 0 0 0
SMALL
GASTEIGER

@<TRIPOS>ATOM
      1 O          -0.5465    0.7552    1.5648 O.2     1  UNL1       -0.2864
      2 C          -0.2950    0.1623    0.5222 C.ar    1  UNL1        0.2003
      3 C           1.1010   -0.0742    0.1111 C.ar    1  UNL1        0.0680
      4 C           2.1646    0.3655    0.9060 C.ar    1  UNL1       -0.0056
      5 C           3.4837    0.1358    0.5060 C.ar    1  UNL1        0.1210
      6 O           4.4322    0.6131    1.3670 O.3     1  UNL1       -0.4951
      7 C           5.7932    0.4050    1.0113 C.3     1  UNL1        0.0788
      8 C           3.7295   -0.5362   -0.6941 C.ar    1  UNL1       -0.0164
      9 C           2.6633   -0.9747   -1.4873 C.ar    1  UNL1       -0.0152
     10 C           1.3502   -0.7425   -1.0824 C.ar    1  UNL1        0.1386
     11 O           0.3512   -1.1951   -1.9037 O.2     1  UNL1       -0.4621
     12 C          -0.9462   -0.9720   -1.5107 C.ar    1  UNL1        0.1038
     13 C          -1.3554   -0.3559   -0.3898 C.ar    1  UNL1        0.0643
     14 C          -2.7939   -0.1805   -0.1134 C.ar    1  UNL1       -0.0113
     15 C          -3.6827   -1.2650   -0.1914 C.ar    1  UNL1       -0.0538
     16 C          -5.0459   -1.0908    0.0621 C.ar    1  UNL1       -0.0612
     17 C          -5.5372    0.1679    0.4003 C.ar    1  UNL1       -0.0617
     18 C          -4.6665    1.2514    0.4897 C.ar    1  UNL1       -0.0612
     19 C          -3.3035    1.0779    0.2357 C.ar    1  UNL1       -0.0538
     20 H           1.9680    0.8881    1.8402 H       1  UNL1        0.0662
     21 H           6.0379    0.9137    0.0730 H       1  UNL1        0.0660
     22 H           6.4152    0.8416    1.7987 H       1  UNL1        0.0660
     23 H           6.0275   -0.6631    0.9553 H       1  UNL1        0.0660
     24 H           4.7383   -0.7348   -1.0416 H       1  UNL1        0.0655
     25 H           2.8610   -1.4966   -2.4203 H       1  UNL1        0.0656
     26 H          -1.6194   -1.3684   -2.2618 H       1  UNL1        0.1037
     27 H          -3.3215   -2.2610   -0.4375 H       1  UNL1        0.0624
     28 H          -5.7223   -1.9395    0.0024 H       1  UNL1        0.0618
     29 H          -6.5964    0.3035    0.6028 H       1  UNL1        0.0618
     30 H          -5.0442    2.2330    0.7643 H       1  UNL1        0.0618
     31 H          -2.6406    1.9370    0.3215 H       1  UNL1        0.0624
@<TRIPOS>BOND
     1     1     2    2
     2     2     3   ar
     3     3     4   ar
     4     4     5   ar
     5     5     6    1
     6     6     7    1
     7     5     8   ar
     8     8     9   ar
     9     9    10   ar
    10    10    11   ar
    11    11    12   ar
    12    12    13   ar
    13    13    14    1
    14    14    15   ar
    15    15    16   ar
    16    16    17   ar
    17    17    18   ar
    18    18    19   ar
    19    13     2   ar
    20    10     3   ar
    21    19    14   ar
    22     4    20    1
    23     7    21    1
    24     7    22    1
    25     7    23    1
    26     8    24    1
    27     9    25    1
    28    12    26    1
    29    15    27    1
    30    16    28    1
    31    17    29    1
    32    18    30    1
    33    19    31    1
