@<TRIPOS>MOLECULE
*****
 32 34 0 0 0
SMALL
GASTEIGER

@<TRIPOS>ATOM
      1 O          -0.5888   -1.6990   -1.4204 O.2     1  UNL1       -0.2864
      2 C          -0.0483   -0.8409   -0.7318 C.ar    1  UNL1        0.2002
      3 C           1.4202   -0.6999   -0.7270 C.ar    1  UNL1        0.0650
      4 C           2.2082   -1.5512   -1.5081 C.ar    1  UNL1       -0.0439
      5 C           3.5956   -1.4206   -1.4890 C.ar    1  UNL1       -0.0190
      6 C           4.1845   -0.4354   -0.6952 C.ar    1  UNL1        0.1233
      7 O           5.5459   -0.3172   -0.6611 O.3     1  UNL1       -0.5064
      8 C           3.4106    0.4414    0.0784 C.ar    1  UNL1        0.0338
      9 C           4.0629    1.4777    0.9517 C.3     1  UNL1       -0.0327
     10 C           2.0135    0.2846    0.0653 C.ar    1  UNL1        0.1448
     11 O           1.2662    1.1240    0.8566 O.2     1  UNL1       -0.4617
     12 C          -0.0992    0.9843    0.8443 C.ar    1  UNL1        0.1039
     13 C          -0.8137    0.1031    0.1281 C.ar    1  UNL1        0.0643
     14 C          -2.2841    0.0670    0.2324 C.ar    1  UNL1       -0.0110
     15 C          -3.0486    1.2348    0.0700 C.ar    1  UNL1       -0.0504
     16 C          -4.4424    1.1993    0.1793 C.ar    1  UNL1       -0.0196
     17 C          -5.0760   -0.0081    0.4495 C.ar    1  UNL1        0.1169
     18 O          -6.4317   -0.0895    0.5650 O.3     1  UNL1       -0.5068
     19 C          -4.3411   -1.1757    0.6072 C.ar    1  UNL1       -0.0196
     20 C          -2.9489   -1.1391    0.4964 C.ar    1  UNL1       -0.0504
     21 H           1.7432   -2.3180   -2.1244 H       1  UNL1        0.0627
     22 H           4.1973   -2.0939   -2.0925 H       1  UNL1        0.0654
     23 H           5.9394   -0.9903   -1.2406 H       1  UNL1        0.2921
     24 H           3.4389    2.3729    1.0415 H       1  UNL1        0.0280
     25 H           4.2383    1.0658    1.9503 H       1  UNL1        0.0280
     26 H           5.0183    1.8122    0.5348 H       1  UNL1        0.0280
     27 H          -0.5367    1.7052    1.5250 H       1  UNL1        0.1037
     28 H          -2.5663    2.1835   -0.1556 H       1  UNL1        0.0625
     29 H          -5.0090    2.1155    0.0473 H       1  UNL1        0.0654
     30 H          -6.8116    0.7880    0.3967 H       1  UNL1        0.2921
     31 H          -4.8474   -2.1153    0.8094 H       1  UNL1        0.0654
     32 H          -2.3893   -2.0653    0.6125 H       1  UNL1        0.0625
@<TRIPOS>BOND
     1     1     2    2
     2     2     3   ar
     3     3     4   ar
     4     4     5   ar
     5     5     6   ar
     6     6     7    1
     7     6     8   ar
     8     8     9    1
     9     8    10   ar
    10    10    11   ar
    11    11    12   ar
    12    12    13   ar
    13    13    14    1
    14    14    15   ar
    15    15    16   ar
    16    16    17   ar
    17    17    18    1
    18    17    19   ar
    19    19    20   ar
    20    13     2   ar
    21    10     3   ar
    22    20    14   ar
    23     4    21    1
    24     5    22    1
    25     7    23    1
    26     9    24    1
    27     9    25    1
    28     9    26    1
    29    12    27    1
    30    15    28    1
    31    16    29    1
    32    18    30    1
    33    19    31    1
    34    20    32    1
