@<TRIPOS>MOLECULE
*****
 21 22 0 0 0
SMALL
GASTEIGER

@<TRIPOS>ATOM
      1 O          -0.8328    2.9183   -0.6553 O.2     1  UNL1       -0.2870
      2 C          -0.8305    1.7252   -0.3839 C.ar    1  UNL1        0.1927
      3 C           0.4092    0.9502   -0.2292 C.ar    1  UNL1        0.0642
      4 C           1.6582    1.5574   -0.3891 C.ar    1  UNL1       -0.0439
      5 C           2.8162    0.7943   -0.2357 C.ar    1  UNL1       -0.0193
      6 C           2.7153   -0.5598    0.0742 C.ar    1  UNL1        0.1204
      7 O           3.8749   -1.2630    0.2139 O.3     1  UNL1       -0.5066
      8 C           1.4737   -1.1698    0.2346 C.ar    1  UNL1        0.0228
      9 C           0.3158   -0.4058    0.0810 C.ar    1  UNL1        0.1422
     10 O          -0.8846   -1.0514    0.2488 O.2     1  UNL1       -0.4596
     11 C          -2.0536   -0.3206    0.1030 C.ar    1  UNL1        0.1062
     12 C          -3.2958   -1.1301    0.3088 C.3     1  UNL1       -0.0062
     13 C          -2.0898    0.9865   -0.1938 C.ar    1  UNL1        0.0236
     14 H           1.7302    2.6153   -0.6311 H       1  UNL1        0.0627
     15 H           3.7938    1.2535   -0.3573 H       1  UNL1        0.0654
     16 H           3.6622   -2.1866    0.4278 H       1  UNL1        0.2921
     17 H           1.3904   -2.2244    0.4760 H       1  UNL1        0.0691
     18 H          -3.3055   -1.5569    1.3169 H       1  UNL1        0.0308
     19 H          -3.3357   -1.9509   -0.4145 H       1  UNL1        0.0308
     20 H          -4.2040   -0.5305    0.1883 H       1  UNL1        0.0308
     21 H          -3.0077    1.5491   -0.3058 H       1  UNL1        0.0689
@<TRIPOS>BOND
     1     1     2    2
     2     2     3   ar
     3     3     4   ar
     4     4     5   ar
     5     5     6   ar
     6     6     7    1
     7     6     8   ar
     8     8     9   ar
     9     9    10   ar
    10    10    11   ar
    11    11    12    1
    12    11    13   ar
    13    13     2   ar
    14     9     3   ar
    15     4    14    1
    16     5    15    1
    17     7    16    1
    18     8    17    1
    19    12    18    1
    20    12    19    1
    21    12    20    1
    22    13    21    1
