@<TRIPOS>MOLECULE
*****
 18 19 0 0 0
SMALL
GASTEIGER

@<TRIPOS>ATOM
      1 O          -2.4154    1.8925   -0.5188 O.2     1  UNL1       -0.2871
      2 C          -1.9366    0.8016   -0.2406 C.ar    1  UNL1        0.1925
      3 C          -0.4843    0.5704   -0.1508 C.ar    1  UNL1        0.0642
      4 C           0.4204    1.6099   -0.3846 C.ar    1  UNL1       -0.0439
      5 C           1.7902    1.3603   -0.2921 C.ar    1  UNL1       -0.0193
      6 C           2.2404    0.0823    0.0312 C.ar    1  UNL1        0.1204
      7 O           3.5880   -0.1105    0.1092 O.3     1  UNL1       -0.5066
      8 C           1.3448   -0.9581    0.2654 C.ar    1  UNL1        0.0228
      9 C          -0.0250   -0.7082    0.1729 C.ar    1  UNL1        0.1418
     10 O          -0.8719   -1.7646    0.4122 O.2     1  UNL1       -0.4626
     11 C          -2.2233   -1.5294    0.3236 C.ar    1  UNL1        0.0961
     12 C          -2.7993   -0.3622    0.0246 C.ar    1  UNL1        0.0207
     13 H           0.0633    2.6058   -0.6367 H       1  UNL1        0.0627
     14 H           2.5047    2.1596   -0.4715 H       1  UNL1        0.0654
     15 H           3.7633   -1.0377    0.3403 H       1  UNL1        0.2921
     16 H           1.6912   -1.9550    0.5175 H       1  UNL1        0.0691
     17 H          -2.7807   -2.4334    0.5323 H       1  UNL1        0.1031
     18 H          -3.8700   -0.2232   -0.0340 H       1  UNL1        0.0687
@<TRIPOS>BOND
     1     1     2    2
     2     2     3   ar
     3     3     4   ar
     4     4     5   ar
     5     5     6   ar
     6     6     7    1
     7     6     8   ar
     8     8     9   ar
     9     9    10   ar
    10    10    11   ar
    11    11    12   ar
    12    12     2   ar
    13     9     3   ar
    14     4    13    1
    15     5    14    1
    16     7    15    1
    17     8    16    1
    18    11    17    1
    19    12    18    1
