@<TRIPOS>MOLECULE
*****
 28 30 0 0 0
SMALL
GASTEIGER

@<TRIPOS>ATOM
      1 O          -0.2320   -0.9070    1.8070 O.2     1  UNL1       -0.2864
      2 C           0.2448   -0.4315    0.7831 C.ar    1  UNL1        0.2001
      3 C           1.6958   -0.4964    0.5295 C.ar    1  UNL1        0.0648
      4 C           2.5563   -1.0940    1.4566 C.ar    1  UNL1       -0.0439
      5 C           3.9259   -1.1434    1.1937 C.ar    1  UNL1       -0.0193
      6 C           4.4224   -0.5984    0.0128 C.ar    1  UNL1        0.1204
      7 O           5.7670   -0.6710   -0.1995 O.3     1  UNL1       -0.5066
      8 C           3.5726   -0.0021   -0.9148 C.ar    1  UNL1        0.0228
      9 C           2.2029    0.0465   -0.6497 C.ar    1  UNL1        0.1419
     10 O           1.4058    0.6425   -1.5933 O.2     1  UNL1       -0.4620
     11 C           0.0558    0.6997   -1.3446 C.ar    1  UNL1        0.1038
     12 C          -0.5858    0.2357   -0.2601 C.ar    1  UNL1        0.0643
     13 C          -2.0510    0.3609   -0.1427 C.ar    1  UNL1       -0.0112
     14 C          -2.6894    1.5956   -0.3456 C.ar    1  UNL1       -0.0528
     15 C          -4.0792    1.7077   -0.2393 C.ar    1  UNL1       -0.0472
     16 C          -4.8410    0.5851    0.0750 C.ar    1  UNL1        0.0179
     17 BR         -6.7194    0.7355    0.2198 Br      1  UNL1       -0.0503
     18 C          -4.2265   -0.6460    0.2871 C.ar    1  UNL1       -0.0472
     19 C          -2.8367   -0.7554    0.1796 C.ar    1  UNL1       -0.0528
     20 H           2.1651   -1.5185    2.3787 H       1  UNL1        0.0627
     21 H           4.6034   -1.6052    1.9074 H       1  UNL1        0.0654
     22 H           5.9774   -0.2574   -1.0530 H       1  UNL1        0.2921
     23 H           3.9548    0.4238   -1.8368 H       1  UNL1        0.0691
     24 H          -0.4397    1.1811   -2.1798 H       1  UNL1        0.1037
     25 H          -2.1107    2.4878   -0.5757 H       1  UNL1        0.0624
     26 H          -4.5533    2.6728   -0.3968 H       1  UNL1        0.0629
     27 H          -4.8133   -1.5245    0.5422 H       1  UNL1        0.0629
     28 H          -2.3721   -1.7237    0.3591 H       1  UNL1        0.0624
@<TRIPOS>BOND
     1     1     2    2
     2     2     3   ar
     3     3     4   ar
     4     4     5   ar
     5     5     6   ar
     6     6     7    1
     7     6     8   ar
     8     8     9   ar
     9     9    10   ar
    10    10    11   ar
    11    11    12   ar
    12    12    13    1
    13    13    14   ar
    14    14    15   ar
    15    15    16   ar
    16    16    17    1
    17    16    18   ar
    18    18    19   ar
    19    12     2   ar
    20     9     3   ar
    21    19    13   ar
    22     4    20    1
    23     5    21    1
    24     7    22    1
    25     8    23    1
    26    11    24    1
    27    14    25    1
    28    15    26    1
    29    18    27    1
    30    19    28    1
