@<TRIPOS>MOLECULE
*****
 28 30 0 0 0
SMALL
GASTEIGER

@<TRIPOS>ATOM
      1 O           0.3209   -0.0454    1.9496 O.2     1  UNL1       -0.2864
      2 C           0.4498   -0.0943    0.7317 C.ar    1  UNL1        0.2001
      3 C           1.7517   -0.4340    0.1291 C.ar    1  UNL1        0.0648
      4 C           2.8650   -0.6968    0.9366 C.ar    1  UNL1       -0.0439
      5 C           4.0899   -1.0167    0.3471 C.ar    1  UNL1       -0.0193
      6 C           4.1864   -1.0700   -1.0416 C.ar    1  UNL1        0.1204
      7 O           5.3624   -1.3781   -1.6583 O.3     1  UNL1       -0.5066
      8 C           3.0828   -0.8097   -1.8488 C.ar    1  UNL1        0.0228
      9 C           1.8612   -0.4904   -1.2582 C.ar    1  UNL1        0.1419
     10 O           0.8043   -0.2436   -2.0956 O.2     1  UNL1       -0.4620
     11 C          -0.4031    0.0760   -1.5229 C.ar    1  UNL1        0.1038
     12 C          -0.6715    0.1816   -0.2115 C.ar    1  UNL1        0.0643
     13 C          -2.0290    0.5237    0.2538 C.ar    1  UNL1       -0.0112
     14 C          -2.6620   -0.2543    1.2346 C.ar    1  UNL1       -0.0524
     15 C          -3.9503    0.0619    1.6774 C.ar    1  UNL1       -0.0428
     16 C          -4.6150    1.1621    1.1433 C.ar    1  UNL1        0.0410
     17 CL         -6.2002    1.5518    1.6859 Cl      1  UNL1       -0.0835
     18 C          -4.0017    1.9510    0.1734 C.ar    1  UNL1       -0.0428
     19 C          -2.7131    1.6341   -0.2681 C.ar    1  UNL1       -0.0524
     20 H           2.7786   -0.6519    2.0204 H       1  UNL1        0.0627
     21 H           4.9479   -1.2187    0.9813 H       1  UNL1        0.0654
     22 H           6.0427   -1.5342   -0.9822 H       1  UNL1        0.2921
     23 H           3.1768   -0.8563   -2.9298 H       1  UNL1        0.0691
     24 H          -1.1374    0.2283   -2.3054 H       1  UNL1        0.1037
     25 H          -2.1538   -1.1127    1.6710 H       1  UNL1        0.0624
     26 H          -4.4216   -0.5514    2.4408 H       1  UNL1        0.0632
     27 H          -4.5159    2.8152   -0.2387 H       1  UNL1        0.0632
     28 H          -2.2459    2.2729   -1.0148 H       1  UNL1        0.0624
@<TRIPOS>BOND
     1     1     2    2
     2     2     3   ar
     3     3     4   ar
     4     4     5   ar
     5     5     6   ar
     6     6     7    1
     7     6     8   ar
     8     8     9   ar
     9     9    10   ar
    10    10    11   ar
    11    11    12   ar
    12    12    13    1
    13    13    14   ar
    14    14    15   ar
    15    15    16   ar
    16    16    17    1
    17    16    18   ar
    18    18    19   ar
    19    12     2   ar
    20     9     3   ar
    21    19    13   ar
    22     4    20    1
    23     5    21    1
    24     7    22    1
    25     8    23    1
    26    11    24    1
    27    14    25    1
    28    15    26    1
    29    18    27    1
    30    19    28    1
