@<TRIPOS>MOLECULE
*****
 28 30 0 0 0
SMALL
GASTEIGER

@<TRIPOS>ATOM
      1 O           0.1597    1.5556    1.2340 O.2     1  UNL1       -0.2864
      2 C          -0.2584    0.7259    0.4349 C.ar    1  UNL1        0.2001
      3 C          -1.6767    0.7184    0.0322 C.ar    1  UNL1        0.0648
      4 C          -2.5701    1.6633    0.5480 C.ar    1  UNL1       -0.0439
      5 C          -3.9078    1.6353    0.1517 C.ar    1  UNL1       -0.0193
      6 C          -4.3401    0.6686   -0.7520 C.ar    1  UNL1        0.1204
      7 O          -5.6558    0.6815   -1.1087 O.3     1  UNL1       -0.5066
      8 C          -3.4573   -0.2751   -1.2699 C.ar    1  UNL1        0.0228
      9 C          -2.1195   -0.2452   -0.8722 C.ar    1  UNL1        0.1419
     10 O          -1.2882   -1.1954   -1.4079 O.2     1  UNL1       -0.4620
     11 C           0.0319   -1.1767   -1.0273 C.ar    1  UNL1        0.1038
     12 C           0.6154   -0.3146   -0.1792 C.ar    1  UNL1        0.0643
     13 C           2.0505   -0.4311    0.1423 C.ar    1  UNL1       -0.0111
     14 C           2.4807   -0.4460    1.4789 C.ar    1  UNL1       -0.0511
     15 C           3.8380   -0.5614    1.7897 C.ar    1  UNL1       -0.0259
     16 C           4.7697   -0.6593    0.7648 C.ar    1  UNL1        0.1234
     17 F           6.0708   -0.7707    1.0621 F       1  UNL1       -0.2055
     18 C           4.3710   -0.6403   -0.5657 C.ar    1  UNL1       -0.0259
     19 C           3.0139   -0.5244   -0.8776 C.ar    1  UNL1       -0.0511
     20 H          -2.2289    2.4176    1.2537 H       1  UNL1        0.0627
     21 H          -4.6104    2.3650    0.5462 H       1  UNL1        0.0654
     22 H          -5.8221   -0.0393   -1.7385 H       1  UNL1        0.2921
     23 H          -3.7896   -1.0307   -1.9742 H       1  UNL1        0.0691
     24 H           0.5549   -1.9896   -1.5178 H       1  UNL1        0.1037
     25 H           1.7616   -0.3593    2.2918 H       1  UNL1        0.0625
     26 H           4.1701   -0.5687    2.8229 H       1  UNL1        0.0646
     27 H           5.1175   -0.7093   -1.3505 H       1  UNL1        0.0646
     28 H           2.7193   -0.4942   -1.9244 H       1  UNL1        0.0625
@<TRIPOS>BOND
     1     1     2    2
     2     2     3   ar
     3     3     4   ar
     4     4     5   ar
     5     5     6   ar
     6     6     7    1
     7     6     8   ar
     8     8     9   ar
     9     9    10   ar
    10    10    11   ar
    11    11    12   ar
    12    12    13    1
    13    13    14   ar
    14    14    15   ar
    15    15    16   ar
    16    16    17    1
    17    16    18   ar
    18    18    19   ar
    19    12     2   ar
    20     9     3   ar
    21    19    13   ar
    22     4    20    1
    23     5    21    1
    24     7    22    1
    25     8    23    1
    26    11    24    1
    27    14    25    1
    28    15    26    1
    29    18    27    1
    30    19    28    1
