@<TRIPOS>MOLECULE
*****
 36 42 0 0 0
SMALL
GASTEIGER

@<TRIPOS>ATOM
      1 SI         -5.7812   -0.5988    0.4990 Si      1  UNL1        0.0000
      2 C          -5.8811   -2.4943    0.1104 C.2     1  UNL1        0.0000
      3 C          -4.6671   -3.0151   -0.1743 C.2     1  UNL1        0.0000
      4 C          -3.6482   -2.0250   -0.1098 C.ar    1  UNL1        0.0000
      5 O          -2.2945   -2.1207   -0.3239 O.2     1  UNL1        0.0000
      6 C          -1.7684   -0.8631   -0.1323 C.ar    1  UNL1        0.0000
      7 C          -0.4458   -0.4647   -0.2371 C.ar    1  UNL1        0.0000
      8 SI          1.0339   -1.4642   -0.6616 Si      1  UNL1        0.0000
      9 C           2.0709    0.1318   -0.4754 C.2     1  UNL1        0.0000
     10 C           1.3275    1.2068   -0.1340 C.2     1  UNL1        0.0000
     11 C          -0.0965    0.8874   -0.0004 C.ar    1  UNL1        0.0000
     12 C          -1.1194    1.7997    0.3426 C.ar    1  UNL1        0.0000
     13 N          -1.0077    3.1161    0.6119 N.ar    1  UNL1        0.0000
     14 S          -2.5546    3.6723    0.9501 S.2     1  UNL1        0.0000
     15 N          -3.4486    2.2601    0.7762 N.ar    1  UNL1        0.0000
     16 C          -2.5159    1.3786    0.4527 C.ar    1  UNL1        0.0000
     17 C          -2.7987    0.0015    0.1993 C.ar    1  UNL1        0.0000
     18 C          -3.9642   -0.7138    0.2142 C.ar    1  UNL1        0.0000
     19 C           3.4780    0.1624   -0.6297 C.ar    1  UNL1        0.0000
     20 S           4.2661   -0.5242   -2.0203 S.2     1  UNL1        0.0000
     21 C           5.8424   -0.0786   -1.4960 C.ar    1  UNL1        0.0000
     22 C           5.7768    0.5773   -0.3028 C.ar    1  UNL1        0.0000
     23 S           7.0744    1.2776    0.7306 S.2     1  UNL1        0.0000
     24 C           5.7598    1.7351    1.8046 C.ar    1  UNL1        0.0000
     25 C           4.4706    1.3776    1.3927 C.ar    1  UNL1        0.0000
     26 C           4.4621    0.6964    0.1444 C.ar    1  UNL1        0.0000
     27 H          -6.1924   -0.3642    1.9054 H       1  UNL1        0.0000
     28 H          -6.5418    0.1535   -0.5294 H       1  UNL1        0.0000
     29 H          -6.8317   -3.0022    0.1385 H       1  UNL1        0.0000
     30 H          -4.4670   -4.0482   -0.4228 H       1  UNL1        0.0000
     31 H           1.3899   -2.4645    0.3778 H       1  UNL1        0.0000
     32 H           1.0260   -1.9607   -2.0619 H       1  UNL1        0.0000
     33 H           1.6980    2.2107    0.0303 H       1  UNL1        0.0000
     34 H           6.7312   -0.3069   -2.0676 H       1  UNL1        0.0000
     35 H           6.0262    2.2589    2.7126 H       1  UNL1        0.0000
     36 H           3.5908    1.6055    1.9820 H       1  UNL1        0.0000
@<TRIPOS>BOND
     1     1     2    1
     2     2     3    2
     3     3     4    1
     4     4     5   ar
     5     5     6   ar
     6     6     7   ar
     7     7     8    1
     8     8     9    1
     9     9    10    2
    10    10    11    1
    11    11    12   ar
    12    12    13   ar
    13    13    14   ar
    14    14    15   ar
    15    15    16   ar
    16    16    17   ar
    17    17    18   ar
    18     9    19    1
    19    19    20   ar
    20    20    21   ar
    21    21    22   ar
    22    22    23   ar
    23    23    24   ar
    24    24    25   ar
    25    25    26   ar
    26    18     1    1
    27    26    19   ar
    28    18     4   ar
    29    26    22   ar
    30    17     6   ar
    31    11     7   ar
    32    16    12   ar
    33     1    27    1
    34     1    28    1
    35     2    29    1
    36     3    30    1
    37     8    31    1
    38     8    32    1
    39    10    33    1
    40    21    34    1
    41    24    35    1
    42    25    36    1
