@<TRIPOS>MOLECULE
*****
 33 35 0 0 0
SMALL
GASTEIGER

@<TRIPOS>ATOM
      1 O          -0.8342   -1.9491    0.3360 O.2     1  UNL1       -0.2864
      2 C          -1.2580   -0.8320    0.0634 C.ar    1  UNL1        0.2001
      3 C          -2.6988   -0.6098   -0.1556 C.ar    1  UNL1        0.0648
      4 C          -3.6090   -1.6682   -0.0443 C.ar    1  UNL1       -0.0439
      5 C          -4.9701   -1.4379   -0.2550 C.ar    1  UNL1       -0.0193
      6 C          -5.4042   -0.1534   -0.5744 C.ar    1  UNL1        0.1204
      7 O          -6.7234    0.1156   -0.7881 O.3     1  UNL1       -0.5066
      8 C          -4.5038    0.9020   -0.6864 C.ar    1  UNL1        0.0228
      9 C          -3.1455    0.6700   -0.4754 C.ar    1  UNL1        0.1419
     10 O          -2.2990    1.7412   -0.5983 O.2     1  UNL1       -0.4620
     11 C          -0.9589    1.5235   -0.3873 C.ar    1  UNL1        0.1038
     12 C          -0.3718    0.3604   -0.0626 C.ar    1  UNL1        0.0644
     13 C           1.0896    0.2816    0.1211 C.ar    1  UNL1       -0.0076
     14 C           1.8381   -0.6922   -0.5528 C.ar    1  UNL1       -0.0501
     15 C           3.2281   -0.7717   -0.3960 C.ar    1  UNL1       -0.0157
     16 C           3.8969    0.1213    0.4423 C.ar    1  UNL1        0.1613
     17 O           5.2483    0.1326    0.6636 O.3     1  UNL1       -0.4915
     18 C           6.0233   -0.8718    0.0254 C.3     1  UNL1        0.0790
     19 C           3.1473    1.0896    1.1231 C.ar    1  UNL1        0.1590
     20 O           3.7921    1.9682    1.9546 O.3     1  UNL1       -0.5033
     21 C           1.7605    1.1732    0.9704 C.ar    1  UNL1       -0.0086
     22 H          -3.2590   -2.6677    0.2061 H       1  UNL1        0.0627
     23 H          -5.6685   -2.2647   -0.1662 H       1  UNL1        0.0654
     24 H          -7.2349   -0.7035   -0.6790 H       1  UNL1        0.2921
     25 H          -4.8605    1.8968   -0.9368 H       1  UNL1        0.0691
     26 H          -0.4209    2.4530   -0.5338 H       1  UNL1        0.1037
     27 H           1.3451   -1.4092   -1.2078 H       1  UNL1        0.0625
     28 H           3.7541   -1.5472   -0.9426 H       1  UNL1        0.0655
     29 H           7.0664   -0.7301    0.3243 H       1  UNL1        0.0660
     30 H           5.7182   -1.8726    0.3485 H       1  UNL1        0.0660
     31 H           5.9742   -0.7752   -1.0642 H       1  UNL1        0.0660
     32 H           3.1381    2.5193    2.4102 H       1  UNL1        0.2923
     33 H           1.2000    1.9256    1.5176 H       1  UNL1        0.0661
@<TRIPOS>BOND
     1     1     2    2
     2     2     3   ar
     3     3     4   ar
     4     4     5   ar
     5     5     6   ar
     6     6     7    1
     7     6     8   ar
     8     8     9   ar
     9     9    10   ar
    10    10    11   ar
    11    11    12   ar
    12    12    13    1
    13    13    14   ar
    14    14    15   ar
    15    15    16   ar
    16    16    17    1
    17    17    18    1
    18    16    19   ar
    19    19    20    1
    20    19    21   ar
    21    12     2   ar
    22     9     3   ar
    23    21    13   ar
    24     4    22    1
    25     5    23    1
    26     7    24    1
    27     8    25    1
    28    11    26    1
    29    14    27    1
    30    15    28    1
    31    18    29    1
    32    18    30    1
    33    18    31    1
    34    20    32    1
    35    21    33    1
