@<TRIPOS>MOLECULE
*****
 32 34 0 0 0
SMALL
GASTEIGER

@<TRIPOS>ATOM
      1 O           0.7777   -1.7571    1.0695 O.2     1  UNL1       -0.2864
      2 C           1.1912   -0.7877    0.4443 C.ar    1  UNL1        0.2001
      3 C           2.6356   -0.4984    0.3781 C.ar    1  UNL1        0.0648
      4 C           3.5590   -1.3215    1.0317 C.ar    1  UNL1       -0.0439
      5 C           4.9209   -1.0271    0.9544 C.ar    1  UNL1       -0.0193
      6 C           5.3474    0.0814    0.2282 C.ar    1  UNL1        0.1204
      7 O           6.6873    0.3280    0.1814 O.3     1  UNL1       -0.5066
      8 C           4.4349    0.9054   -0.4250 C.ar    1  UNL1        0.0228
      9 C           3.0730    0.6092   -0.3461 C.ar    1  UNL1        0.1419
     10 O           2.2130    1.4489   -1.0066 O.2     1  UNL1       -0.4620
     11 C           0.8696    1.1695   -0.9374 C.ar    1  UNL1        0.1038
     12 C           0.2890    0.1542   -0.2778 C.ar    1  UNL1        0.0643
     13 C          -1.1748   -0.0211   -0.3105 C.ar    1  UNL1       -0.0110
     14 C          -2.0382    1.0405   -0.0000 C.ar    1  UNL1       -0.0504
     15 C          -3.4291    0.8747   -0.0417 C.ar    1  UNL1       -0.0194
     16 C          -3.9781   -0.3577   -0.3919 C.ar    1  UNL1        0.1201
     17 O          -5.3105   -0.6527   -0.4729 O.3     1  UNL1       -0.4951
     18 C          -6.2211    0.3834   -0.1283 C.3     1  UNL1        0.0788
     19 C          -3.1246   -1.4194   -0.6954 C.ar    1  UNL1       -0.0194
     20 C          -1.7364   -1.2561   -0.6532 C.ar    1  UNL1       -0.0504
     21 H           3.2220   -2.1867    1.5985 H       1  UNL1        0.0627
     22 H           5.6465   -1.6601    1.4587 H       1  UNL1        0.0654
     23 H           6.8461    1.1219   -0.3555 H       1  UNL1        0.2921
     24 H           4.7624    1.7703   -0.9925 H       1  UNL1        0.0691
     25 H           0.3225    1.9034   -1.5177 H       1  UNL1        0.1037
     26 H          -1.6391    2.0098    0.2913 H       1  UNL1        0.0625
     27 H          -4.0514    1.7271    0.2091 H       1  UNL1        0.0654
     28 H          -7.2350   -0.0161   -0.2267 H       1  UNL1        0.0660
     29 H          -6.0868    0.6982    0.9119 H       1  UNL1        0.0660
     30 H          -6.1299    1.2324   -0.8138 H       1  UNL1        0.0660
     31 H          -3.5421   -2.3877   -0.9613 H       1  UNL1        0.0654
     32 H          -1.1012   -2.1089   -0.8851 H       1  UNL1        0.0625
@<TRIPOS>BOND
     1     1     2    2
     2     2     3   ar
     3     3     4   ar
     4     4     5   ar
     5     5     6   ar
     6     6     7    1
     7     6     8   ar
     8     8     9   ar
     9     9    10   ar
    10    10    11   ar
    11    11    12   ar
    12    12    13    1
    13    13    14   ar
    14    14    15   ar
    15    15    16   ar
    16    16    17    1
    17    17    18    1
    18    16    19   ar
    19    19    20   ar
    20    12     2   ar
    21     9     3   ar
    22    20    13   ar
    23     4    21    1
    24     5    22    1
    25     7    23    1
    26     8    24    1
    27    11    25    1
    28    14    26    1
    29    15    27    1
    30    18    28    1
    31    18    29    1
    32    18    30    1
    33    19    31    1
    34    20    32    1
