@<TRIPOS>MOLECULE
*****
 28 30 0 0 0
SMALL
GASTEIGER

@<TRIPOS>ATOM
      1 O           0.0117    0.9998    1.7403 O.2     1  UNL1       -0.2864
      2 C           0.3349    0.4179    0.7112 C.ar    1  UNL1        0.2001
      3 C           1.7569    0.2558    0.3577 C.ar    1  UNL1        0.0648
      4 C           2.7619    0.7538    1.1960 C.ar    1  UNL1       -0.0439
      5 C           4.1034    0.5904    0.8441 C.ar    1  UNL1       -0.0193
      6 C           4.4233   -0.0682   -0.3410 C.ar    1  UNL1        0.1204
      7 O           5.7194   -0.2494   -0.7226 O.3     1  UNL1       -0.5066
      8 C           3.4284   -0.5648   -1.1779 C.ar    1  UNL1        0.0228
      9 C           2.0899   -0.4010   -0.8245 C.ar    1  UNL1        0.1419
     10 O           1.1476   -0.9067   -1.6819 O.2     1  UNL1       -0.4620
     11 C          -0.1744   -0.7545   -1.3397 C.ar    1  UNL1        0.1038
     12 C          -0.6596   -0.1590   -0.2383 C.ar    1  UNL1        0.0643
     13 C          -2.1147   -0.0625   -0.0143 C.ar    1  UNL1       -0.0102
     14 C          -2.7045    1.1692    0.3066 C.ar    1  UNL1       -0.0538
     15 C          -4.0827    1.2711    0.5149 C.ar    1  UNL1       -0.0601
     16 C          -4.8902    0.1409    0.4070 C.ar    1  UNL1       -0.0477
     17 C          -4.3131   -1.0876    0.0959 C.ar    1  UNL1        0.0185
     18 BR         -5.4044   -2.6259   -0.0435 Br      1  UNL1       -0.0503
     19 C          -2.9368   -1.1961   -0.1127 C.ar    1  UNL1       -0.0398
     20 H           2.5006    1.2661    2.1198 H       1  UNL1        0.0627
     21 H           4.8758    0.9795    1.5007 H       1  UNL1        0.0654
     22 H           6.3041    0.1406   -0.0515 H       1  UNL1        0.2921
     23 H           3.6966   -1.0755   -2.0982 H       1  UNL1        0.0691
     24 H          -0.7938   -1.1906   -2.1150 H       1  UNL1        0.1037
     25 H          -2.0921    2.0643    0.4056 H       1  UNL1        0.0624
     26 H          -4.5220    2.2331    0.7674 H       1  UNL1        0.0618
     27 H          -5.9606    0.2272    0.5731 H       1  UNL1        0.0629
     28 H          -2.5054   -2.1682   -0.3398 H       1  UNL1        0.0635
@<TRIPOS>BOND
     1     1     2    2
     2     2     3   ar
     3     3     4   ar
     4     4     5   ar
     5     5     6   ar
     6     6     7    1
     7     6     8   ar
     8     8     9   ar
     9     9    10   ar
    10    10    11   ar
    11    11    12   ar
    12    12    13    1
    13    13    14   ar
    14    14    15   ar
    15    15    16   ar
    16    16    17   ar
    17    17    18    1
    18    17    19   ar
    19    12     2   ar
    20     9     3   ar
    21    19    13   ar
    22     4    20    1
    23     5    21    1
    24     7    22    1
    25     8    23    1
    26    11    24    1
    27    14    25    1
    28    15    26    1
    29    16    27    1
    30    19    28    1
