@<TRIPOS>MOLECULE
*****
 31 33 0 0 0
SMALL
GASTEIGER

@<TRIPOS>ATOM
      1 O           0.7522   -1.4012    1.6718 O.2     1  UNL1       -0.2864
      2 C           0.9690   -0.6502    0.7279 C.ar    1  UNL1        0.2001
      3 C           2.3465   -0.2386    0.3996 C.ar    1  UNL1        0.0648
      4 C           3.4276   -0.6894    1.1649 C.ar    1  UNL1       -0.0439
      5 C           4.7221   -0.2865    0.8344 C.ar    1  UNL1       -0.0193
      6 C           4.9255    0.5591   -0.2525 C.ar    1  UNL1        0.1204
      7 O           6.2077    0.9251   -0.5364 O.3     1  UNL1       -0.5066
      8 C           3.8553    1.0121   -1.0191 C.ar    1  UNL1        0.0228
      9 C           2.5611    0.6079   -0.6865 C.ar    1  UNL1        0.1419
     10 O           1.5399    1.0788   -1.4714 O.2     1  UNL1       -0.4620
     11 C           0.2606    0.6917   -1.1537 C.ar    1  UNL1        0.1038
     12 C          -0.1141   -0.1053   -0.1399 C.ar    1  UNL1        0.0643
     13 C          -1.5364   -0.4403    0.0628 C.ar    1  UNL1       -0.0110
     14 C          -1.9375   -1.7736    0.2144 C.ar    1  UNL1       -0.0538
     15 C          -3.2827   -2.0954    0.4036 C.ar    1  UNL1       -0.0609
     16 C          -4.2451   -1.0877    0.4421 C.ar    1  UNL1       -0.0588
     17 C          -3.8720    0.2510    0.2867 C.ar    1  UNL1       -0.0499
     18 C          -4.8993    1.3408    0.3747 C.3     1  UNL1       -0.0397
     19 C          -2.5160    0.5662    0.1121 C.ar    1  UNL1       -0.0509
     20 H           3.2647   -1.3499    2.0139 H       1  UNL1        0.0627
     21 H           5.5688   -0.6308    1.4227 H       1  UNL1        0.0654
     22 H           6.2069    1.5103   -1.3120 H       1  UNL1        0.2921
     23 H           4.0085    1.6710   -1.8674 H       1  UNL1        0.0691
     24 H          -0.4311    1.1272   -1.8655 H       1  UNL1        0.1037
     25 H          -1.2030   -2.5766    0.1983 H       1  UNL1        0.0624
     26 H          -3.5770   -3.1340    0.5308 H       1  UNL1        0.0618
     27 H          -5.2875   -1.3541    0.6019 H       1  UNL1        0.0620
     28 H          -4.9973    1.6799    1.4105 H       1  UNL1        0.0278
     29 H          -4.6180    2.1931   -0.2527 H       1  UNL1        0.0278
     30 H          -5.8749    0.9881    0.0239 H       1  UNL1        0.0278
     31 H          -2.2246    1.6115    0.0266 H       1  UNL1        0.0626
@<TRIPOS>BOND
     1     1     2    2
     2     2     3   ar
     3     3     4   ar
     4     4     5   ar
     5     5     6   ar
     6     6     7    1
     7     6     8   ar
     8     8     9   ar
     9     9    10   ar
    10    10    11   ar
    11    11    12   ar
    12    12    13    1
    13    13    14   ar
    14    14    15   ar
    15    15    16   ar
    16    16    17   ar
    17    17    18    1
    18    17    19   ar
    19    12     2   ar
    20     9     3   ar
    21    19    13   ar
    22     4    20    1
    23     5    21    1
    24     7    22    1
    25     8    23    1
    26    11    24    1
    27    14    25    1
    28    15    26    1
    29    16    27    1
    30    18    28    1
    31    18    29    1
    32    18    30    1
    33    19    31    1
