@<TRIPOS>MOLECULE
*****
 28 30 0 0 0
SMALL
GASTEIGER

@<TRIPOS>ATOM
      1 O          -0.0776    0.0183   -1.9645 O.2     1  UNL1       -0.2864
      2 C           0.2948    0.0285   -0.7970 C.ar    1  UNL1        0.2001
      3 C           1.7313    0.0498   -0.4670 C.ar    1  UNL1        0.0648
      4 C           2.6964    0.0619   -1.4814 C.ar    1  UNL1       -0.0439
      5 C           4.0525    0.0827   -1.1486 C.ar    1  UNL1       -0.0193
      6 C           4.4265    0.0912    0.1932 C.ar    1  UNL1        0.1204
      7 O           5.7387    0.1115    0.5624 O.3     1  UNL1       -0.5066
      8 C           3.4712    0.0792    1.2054 C.ar    1  UNL1        0.0228
      9 C           2.1181    0.0584    0.8711 C.ar    1  UNL1        0.1419
     10 O           1.2162    0.0460    1.9034 O.2     1  UNL1       -0.4620
     11 C          -0.1201    0.0251    1.5838 C.ar    1  UNL1        0.1038
     12 C          -0.6545    0.0241    0.3521 C.ar    1  UNL1        0.0643
     13 C          -2.1170   -0.0123    0.1659 C.ar    1  UNL1       -0.0099
     14 C          -2.9503    0.9093    0.8217 C.ar    1  UNL1       -0.0537
     15 C          -4.3363    0.8695    0.6477 C.ar    1  UNL1       -0.0598
     16 C          -4.9058   -0.0911   -0.1858 C.ar    1  UNL1       -0.0434
     17 C          -4.0866   -1.0046   -0.8453 C.ar    1  UNL1        0.0416
     18 CL         -4.7915   -2.1906   -1.8747 Cl      1  UNL1       -0.0835
     19 C          -2.7022   -0.9689   -0.6756 C.ar    1  UNL1       -0.0355
     20 H           2.3929    0.0555   -2.5264 H       1  UNL1        0.0627
     21 H           4.7938    0.0921   -1.9421 H       1  UNL1        0.0654
     22 H           6.2918    0.1158   -0.2366 H       1  UNL1        0.2921
     23 H           3.7817    0.0855    2.2462 H       1  UNL1        0.0691
     24 H          -0.7036    0.0003    2.4968 H       1  UNL1        0.1037
     25 H          -2.5269    1.6778    1.4658 H       1  UNL1        0.0624
     26 H          -4.9699    1.5909    1.1580 H       1  UNL1        0.0618
     27 H          -5.9836   -0.1196   -0.3215 H       1  UNL1        0.0632
     28 H          -2.0801   -1.6863   -1.2070 H       1  UNL1        0.0638
@<TRIPOS>BOND
     1     1     2    2
     2     2     3   ar
     3     3     4   ar
     4     4     5   ar
     5     5     6   ar
     6     6     7    1
     7     6     8   ar
     8     8     9   ar
     9     9    10   ar
    10    10    11   ar
    11    11    12   ar
    12    12    13    1
    13    13    14   ar
    14    14    15   ar
    15    15    16   ar
    16    16    17   ar
    17    17    18    1
    18    17    19   ar
    19    12     2   ar
    20     9     3   ar
    21    19    13   ar
    22     4    20    1
    23     5    21    1
    24     7    22    1
    25     8    23    1
    26    11    24    1
    27    14    25    1
    28    15    26    1
    29    16    27    1
    30    19    28    1
