@<TRIPOS>MOLECULE
*****
 29 31 0 0 0
SMALL
GASTEIGER

@<TRIPOS>ATOM
      1 O          -0.1612    1.9728   -0.0458 O.2     1  UNL1       -0.2864
      2 C           0.3757    0.8764    0.0575 C.ar    1  UNL1        0.2001
      3 C           1.8366    0.7666    0.2253 C.ar    1  UNL1        0.0648
      4 C           2.6366    1.9130    0.2801 C.ar    1  UNL1       -0.0439
      5 C           4.0171    1.7835    0.4378 C.ar    1  UNL1       -0.0193
      6 C           4.5845    0.5163    0.5390 C.ar    1  UNL1        0.1204
      7 O           5.9370    0.4406    0.6922 O.3     1  UNL1       -0.5066
      8 C           3.7955   -0.6296    0.4851 C.ar    1  UNL1        0.0228
      9 C           2.4147   -0.4979    0.3272 C.ar    1  UNL1        0.1419
     10 O           1.6795   -1.6551    0.2798 O.2     1  UNL1       -0.4620
     11 C           0.3182   -1.5401    0.1336 C.ar    1  UNL1        0.1038
     12 C          -0.3855   -0.4032    0.0143 C.ar    1  UNL1        0.0644
     13 C          -1.8516   -0.4436   -0.1198 C.ar    1  UNL1       -0.0078
     14 C          -2.4607   -1.1842   -1.1458 C.ar    1  UNL1       -0.0536
     15 C          -3.8530   -1.2292   -1.2617 C.ar    1  UNL1       -0.0577
     16 C          -4.6529   -0.5357   -0.3547 C.ar    1  UNL1       -0.0201
     17 C          -4.0508    0.2016    0.6594 C.ar    1  UNL1        0.1174
     18 O          -4.7954    0.8938    1.5689 O.3     1  UNL1       -0.5067
     19 C          -2.6651    0.2549    0.7814 C.ar    1  UNL1       -0.0123
     20 H           2.1893    2.9015    0.2005 H       1  UNL1        0.0627
     21 H           4.6475    2.6678    0.4818 H       1  UNL1        0.0654
     22 H           6.1980   -0.4932    0.7543 H       1  UNL1        0.2921
     23 H           4.2330   -1.6194    0.5636 H       1  UNL1        0.0691
     24 H          -0.1282   -2.5276    0.1371 H       1  UNL1        0.1037
     25 H          -1.8560   -1.7232   -1.8721 H       1  UNL1        0.0624
     26 H          -4.3117   -1.8027   -2.0632 H       1  UNL1        0.0619
     27 H          -5.7326   -0.5793   -0.4548 H       1  UNL1        0.0654
     28 H          -5.7317    0.8256    1.3211 H       1  UNL1        0.2921
     29 H          -2.2269    0.8496    1.5797 H       1  UNL1        0.0660
@<TRIPOS>BOND
     1     1     2    2
     2     2     3   ar
     3     3     4   ar
     4     4     5   ar
     5     5     6   ar
     6     6     7    1
     7     6     8   ar
     8     8     9   ar
     9     9    10   ar
    10    10    11   ar
    11    11    12   ar
    12    12    13    1
    13    13    14   ar
    14    14    15   ar
    15    15    16   ar
    16    16    17   ar
    17    17    18    1
    18    17    19   ar
    19    12     2   ar
    20     9     3   ar
    21    19    13   ar
    22     4    20    1
    23     5    21    1
    24     7    22    1
    25     8    23    1
    26    11    24    1
    27    14    25    1
    28    15    26    1
    29    16    27    1
    30    18    28    1
    31    19    29    1
