@<TRIPOS>MOLECULE
*****
 32 34 0 0 0
SMALL
GASTEIGER

@<TRIPOS>ATOM
      1 O          -0.8460   -1.2231   -1.6919 O.2     1  UNL1       -0.2864
      2 C          -1.0686   -0.5996   -0.6608 C.ar    1  UNL1        0.2001
      3 C          -2.4175   -0.0769   -0.3752 C.ar    1  UNL1        0.0648
      4 C          -3.4660   -0.2757   -1.2797 C.ar    1  UNL1       -0.0439
      5 C          -4.7339    0.2285   -0.9870 C.ar    1  UNL1       -0.0193
      6 C          -4.9432    0.9235    0.2010 C.ar    1  UNL1        0.1204
      7 O          -6.1987    1.3964    0.4428 O.3     1  UNL1       -0.5066
      8 C          -3.9050    1.1256    1.1063 C.ar    1  UNL1        0.0228
      9 C          -2.6373    0.6207    0.8113 C.ar    1  UNL1        0.1419
     10 O          -1.6472    0.8440    1.7338 O.2     1  UNL1       -0.4620
     11 C          -0.3941    0.3538    1.4561 C.ar    1  UNL1        0.1038
     12 C          -0.0179   -0.3249    0.3603 C.ar    1  UNL1        0.0644
     13 C           1.3709   -0.8000    0.2131 C.ar    1  UNL1       -0.0078
     14 C           1.6288   -2.1466   -0.0749 C.ar    1  UNL1       -0.0536
     15 C           2.9397   -2.6055   -0.2003 C.ar    1  UNL1       -0.0577
     16 C           4.0039   -1.7195   -0.0421 C.ar    1  UNL1       -0.0199
     17 C           3.7706   -0.3710    0.2329 C.ar    1  UNL1        0.1207
     18 O           4.9015    0.3889    0.3562 O.3     1  UNL1       -0.4951
     19 C           4.7233    1.7851    0.5570 C.3     1  UNL1        0.0788
     20 C           2.4555    0.0849    0.3597 C.ar    1  UNL1       -0.0120
     21 H          -3.2989   -0.8191   -2.2072 H       1  UNL1        0.0627
     22 H          -5.5555    0.0797   -1.6829 H       1  UNL1        0.0654
     23 H          -6.2067    1.8546    1.2995 H       1  UNL1        0.2921
     24 H          -4.0633    1.6663    2.0336 H       1  UNL1        0.0691
     25 H           0.2721    0.5908    2.2775 H       1  UNL1        0.1037
     26 H           0.8094   -2.8501   -0.2110 H       1  UNL1        0.0624
     27 H           3.1308   -3.6510   -0.4270 H       1  UNL1        0.0619
     28 H           5.0246   -2.0804   -0.1434 H       1  UNL1        0.0654
     29 H           4.2222    1.9848    1.5098 H       1  UNL1        0.0660
     30 H           5.7148    2.2460    0.5997 H       1  UNL1        0.0660
     31 H           4.1806    2.2392   -0.2788 H       1  UNL1        0.0660
     32 H           2.2511    1.1309    0.5633 H       1  UNL1        0.0660
@<TRIPOS>BOND
     1     1     2    2
     2     2     3   ar
     3     3     4   ar
     4     4     5   ar
     5     5     6   ar
     6     6     7    1
     7     6     8   ar
     8     8     9   ar
     9     9    10   ar
    10    10    11   ar
    11    11    12   ar
    12    12    13    1
    13    13    14   ar
    14    14    15   ar
    15    15    16   ar
    16    16    17   ar
    17    17    18    1
    18    18    19    1
    19    17    20   ar
    20    12     2   ar
    21     9     3   ar
    22    20    13   ar
    23     4    21    1
    24     5    22    1
    25     7    23    1
    26     8    24    1
    27    11    25    1
    28    14    26    1
    29    15    27    1
    30    16    28    1
    31    19    29    1
    32    19    30    1
    33    19    31    1
    34    20    32    1
