@<TRIPOS>MOLECULE
*****
 28 30 0 0 0
SMALL
GASTEIGER

@<TRIPOS>ATOM
      1 O           0.0924   -1.7513   -1.1359 O.2     1  UNL1       -0.2864
      2 C          -0.2865   -0.7794   -0.4928 C.ar    1  UNL1        0.2001
      3 C          -1.7144   -0.6072   -0.1672 C.ar    1  UNL1        0.0648
      4 C          -2.6591   -1.5540   -0.5779 C.ar    1  UNL1       -0.0439
      5 C          -4.0048   -1.3691   -0.2581 C.ar    1  UNL1       -0.0193
      6 C          -4.3942   -0.2454    0.4656 C.ar    1  UNL1        0.1204
      7 O          -5.7196   -0.1082    0.7538 O.3     1  UNL1       -0.5066
      8 C          -3.4604    0.7013    0.8779 C.ar    1  UNL1        0.0228
      9 C          -2.1147    0.5141    0.5570 C.ar    1  UNL1        0.1419
     10 O          -1.2328    1.4738    0.9835 O.2     1  UNL1       -0.4620
     11 C           0.0953    1.3010    0.6773 C.ar    1  UNL1        0.1038
     12 C           0.6420    0.2780    0.0007 C.ar    1  UNL1        0.0643
     13 C           2.0934    0.2429   -0.2606 C.ar    1  UNL1       -0.0113
     14 C           2.5781    0.0180   -1.5567 C.ar    1  UNL1       -0.0538
     15 C           3.9518   -0.0073   -1.8113 C.ar    1  UNL1       -0.0612
     16 C           4.8584    0.1894   -0.7724 C.ar    1  UNL1       -0.0617
     17 C           4.3934    0.4065    0.5224 C.ar    1  UNL1       -0.0612
     18 C           3.0198    0.4313    0.7778 C.ar    1  UNL1       -0.0538
     19 H          -2.3511   -2.4311   -1.1429 H       1  UNL1        0.0627
     20 H          -4.7467   -2.0988   -0.5721 H       1  UNL1        0.0654
     21 H          -5.8521    0.7118    1.2578 H       1  UNL1        0.2921
     22 H          -3.7589    1.5789    1.4419 H       1  UNL1        0.0691
     23 H           0.6622    2.1401    1.0637 H       1  UNL1        0.1037
     24 H           1.8886   -0.1481   -2.3825 H       1  UNL1        0.0624
     25 H           4.3109   -0.1880   -2.8212 H       1  UNL1        0.0618
     26 H           5.9267    0.1648   -0.9712 H       1  UNL1        0.0618
     27 H           5.0999    0.5496    1.3360 H       1  UNL1        0.0618
     28 H           2.6825    0.5864    1.8002 H       1  UNL1        0.0624
@<TRIPOS>BOND
     1     1     2    2
     2     2     3   ar
     3     3     4   ar
     4     4     5   ar
     5     5     6   ar
     6     6     7    1
     7     6     8   ar
     8     8     9   ar
     9     9    10   ar
    10    10    11   ar
    11    11    12   ar
    12    12    13    1
    13    13    14   ar
    14    14    15   ar
    15    15    16   ar
    16    16    17   ar
    17    17    18   ar
    18    12     2   ar
    19     9     3   ar
    20    18    13   ar
    21     4    19    1
    22     5    20    1
    23     7    21    1
    24     8    22    1
    25    11    23    1
    26    14    24    1
    27    15    25    1
    28    16    26    1
    29    17    27    1
    30    18    28    1
