@<TRIPOS>MOLECULE
*****
 31 33 0 0 0
SMALL
GASTEIGER

@<TRIPOS>ATOM
      1 O           0.3295    1.0338   -1.6325 O.2     1  UNL1       -0.2864
      2 C           0.5799    0.4679   -0.5752 C.ar    1  UNL1        0.2002
      3 C           1.9524    0.0335   -0.2560 C.ar    1  UNL1        0.0648
      4 C           2.9988    0.2587   -1.1585 C.ar    1  UNL1       -0.0439
      5 C           4.2922   -0.1597   -0.8392 C.ar    1  UNL1       -0.0193
      6 C           4.5233   -0.7976    0.3777 C.ar    1  UNL1        0.1204
      7 O           5.7704   -1.2220    0.7287 O.3     1  UNL1       -0.5066
      8 C           3.4868   -1.0240    1.2787 C.ar    1  UNL1        0.0228
      9 C           2.1961   -0.6057    0.9586 C.ar    1  UNL1        0.1419
     10 O           1.2101   -0.8522    1.8801 O.2     1  UNL1       -0.4620
     11 C          -0.0657   -0.4460    1.5715 C.ar    1  UNL1        0.1038
     12 C          -0.4559    0.1786    0.4506 C.ar    1  UNL1        0.0645
     13 C          -1.8676    0.5464    0.2635 C.ar    1  UNL1       -0.0084
     14 C          -2.3656    1.6606    0.9602 C.ar    1  UNL1       -0.0536
     15 C          -3.6997    2.0456    0.8287 C.ar    1  UNL1       -0.0612
     16 C          -4.5507    1.3229   -0.0010 C.ar    1  UNL1       -0.0615
     17 C          -4.0698    0.2145   -0.6986 C.ar    1  UNL1       -0.0583
     18 C          -2.7312   -0.1924   -0.5710 C.ar    1  UNL1       -0.0425
     19 C          -2.2522   -1.3825   -1.3576 C.3     1  UNL1       -0.0391
     20 H           2.8064    0.7584   -2.1059 H       1  UNL1        0.0627
     21 H           5.0975    0.0194   -1.5453 H       1  UNL1        0.0654
     22 H           6.3918   -1.0003    0.0153 H       1  UNL1        0.2921
     23 H           3.6858   -1.5229    2.2227 H       1  UNL1        0.0691
     24 H          -0.7390   -0.7095    2.3788 H       1  UNL1        0.1037
     25 H          -1.7111    2.2445    1.6041 H       1  UNL1        0.0624
     26 H          -4.0712    2.9134    1.3672 H       1  UNL1        0.0618
     27 H          -5.5888    1.6252   -0.1121 H       1  UNL1        0.0618
     28 H          -4.7492   -0.3313   -1.3501 H       1  UNL1        0.0620
     29 H          -1.7149   -2.0848   -0.7123 H       1  UNL1        0.0278
     30 H          -3.0907   -1.9326   -1.7982 H       1  UNL1        0.0278
     31 H          -1.5977   -1.0598   -2.1730 H       1  UNL1        0.0278
@<TRIPOS>BOND
     1     1     2    2
     2     2     3   ar
     3     3     4   ar
     4     4     5   ar
     5     5     6   ar
     6     6     7    1
     7     6     8   ar
     8     8     9   ar
     9     9    10   ar
    10    10    11   ar
    11    11    12   ar
    12    12    13    1
    13    13    14   ar
    14    14    15   ar
    15    15    16   ar
    16    16    17   ar
    17    17    18   ar
    18    18    19    1
    19    12     2   ar
    20     9     3   ar
    21    18    13   ar
    22     4    20    1
    23     5    21    1
    24     7    22    1
    25     8    23    1
    26    11    24    1
    27    14    25    1
    28    15    26    1
    29    16    27    1
    30    17    28    1
    31    19    29    1
    32    19    30    1
    33    19    31    1
