@<TRIPOS>MOLECULE
*****
 28 30 0 0 0
SMALL
GASTEIGER

@<TRIPOS>ATOM
      1 O          -0.0232    1.7701    0.9493 O.2     1  UNL1       -0.2864
      2 C           0.3171    0.7403    0.3799 C.ar    1  UNL1        0.2002
      3 C           1.7401    0.3910    0.2172 C.ar    1  UNL1        0.0648
      4 C           2.7424    1.2498    0.6796 C.ar    1  UNL1       -0.0439
      5 C           4.0821    0.8951    0.5163 C.ar    1  UNL1       -0.0193
      6 C           4.4075   -0.3082   -0.1041 C.ar    1  UNL1        0.1204
      7 O           5.7299   -0.6103   -0.2408 O.3     1  UNL1       -0.5066
      8 C           3.4155   -1.1690   -0.5662 C.ar    1  UNL1        0.0228
      9 C           2.0759   -0.8130   -0.4022 C.ar    1  UNL1        0.1419
     10 O           1.1345   -1.6954   -0.8707 O.2     1  UNL1       -0.4620
     11 C          -0.1881   -1.3472   -0.7363 C.ar    1  UNL1        0.1039
     12 C          -0.6652   -0.2268   -0.1743 C.ar    1  UNL1        0.0657
     13 C          -2.1132    0.0175   -0.0953 C.ar    1  UNL1        0.0070
     14 C          -2.7519   -0.1496    1.1444 C.ar    1  UNL1       -0.0524
     15 C          -4.1270    0.0597    1.2722 C.ar    1  UNL1       -0.0611
     16 C          -4.8810    0.4397    0.1646 C.ar    1  UNL1       -0.0603
     17 C          -4.2603    0.6152   -1.0721 C.ar    1  UNL1       -0.0428
     18 C          -2.8833    0.4075   -1.2038 C.ar    1  UNL1        0.0489
     19 CL         -2.1811    0.6547   -2.7660 Cl      1  UNL1       -0.0829
     20 H           2.4840    2.1894    1.1631 H       1  UNL1        0.0627
     21 H           4.8695    1.5553    0.8709 H       1  UNL1        0.0654
     22 H           5.8152   -1.4638   -0.6971 H       1  UNL1        0.2921
     23 H           3.6643   -2.1080   -1.0498 H       1  UNL1        0.0691
     24 H          -0.8143   -2.1217   -1.1635 H       1  UNL1        0.1037
     25 H          -2.1779   -0.4338    2.0247 H       1  UNL1        0.0624
     26 H          -4.6068   -0.0669    2.2400 H       1  UNL1        0.0618
     27 H          -5.9505    0.6077    0.2654 H       1  UNL1        0.0618
     28 H          -4.8544    0.9205   -1.9299 H       1  UNL1        0.0632
@<TRIPOS>BOND
     1     1     2    2
     2     2     3   ar
     3     3     4   ar
     4     4     5   ar
     5     5     6   ar
     6     6     7    1
     7     6     8   ar
     8     8     9   ar
     9     9    10   ar
    10    10    11   ar
    11    11    12   ar
    12    12    13    1
    13    13    14   ar
    14    14    15   ar
    15    15    16   ar
    16    16    17   ar
    17    17    18   ar
    18    18    19    1
    19    12     2   ar
    20     9     3   ar
    21    18    13   ar
    22     4    20    1
    23     5    21    1
    24     7    22    1
    25     8    23    1
    26    11    24    1
    27    14    25    1
    28    15    26    1
    29    16    27    1
    30    17    28    1
