@<TRIPOS>MOLECULE
*****
 35 40 0 0 0
SMALL
GASTEIGER

@<TRIPOS>ATOM
      1 SI         -4.5938   -3.0908   -2.5604 Si      1  UNL1        0.0000
      2 C          -5.0646   -3.9607   -0.9078 C.2     1  UNL1        0.0000
      3 C          -4.2577   -3.5805    0.1073 C.2     1  UNL1        0.0000
      4 C          -3.2827   -2.6413   -0.3270 C.ar    1  UNL1        0.0000
      5 O          -2.2870   -2.0076    0.3568 O.2     1  UNL1        0.0000
      6 C          -1.6375   -1.2062   -0.5457 C.ar    1  UNL1        0.0000
      7 C          -0.5656   -0.3848   -0.2993 C.ar    1  UNL1        0.0000
      8 SI          0.3699   -0.0485    1.2161 Si      1  UNL1        0.0000
      9 C           1.4474    1.1631    0.1936 C.2     1  UNL1        0.0000
     10 C           1.0478    1.2077   -1.0979 C.2     1  UNL1        0.0000
     11 C          -0.0916    0.3272   -1.3962 C.ar    1  UNL1        0.0000
     12 N          -0.6000    0.2708   -2.6412 N.ar    1  UNL1        0.0000
     13 C          -1.6603   -0.5519   -2.8647 C.ar    1  UNL1        0.0000
     14 C          -2.2066   -1.3108   -1.8218 C.ar    1  UNL1        0.0000
     15 C          -3.2385   -2.2238   -1.6443 C.ar    1  UNL1        0.0000
     16 C           2.5040    1.9756    0.7878 C.ar    1  UNL1        0.0000
     17 C           2.5764    3.3743    0.5880 C.ar    1  UNL1        0.0000
     18 C           3.5855    4.1964    1.1438 C.ar    1  UNL1        0.0000
     19 C           4.6216    3.6977    1.9486 C.ar    1  UNL1        0.0000
     20 C           4.6147    2.3022    2.1825 C.ar    1  UNL1        0.0000
     21 N           5.5166    1.6338    2.9175 N.ar    1  UNL1        0.0000
     22 S           5.0732    0.0363    2.8653 S.2     1  UNL1        0.0000
     23 N           3.7139    0.1199    1.9207 N.ar    1  UNL1        0.0000
     24 C           3.5387    1.4130    1.5939 C.ar    1  UNL1        0.0000
     25 H          -5.6926   -2.2050   -3.0170 H       1  UNL1        0.0000
     26 H          -4.1265   -4.0825   -3.5596 H       1  UNL1        0.0000
     27 H          -5.8866   -4.6576   -0.8717 H       1  UNL1        0.0000
     28 H          -4.3215   -3.9295    1.1288 H       1  UNL1        0.0000
     29 H           1.1139   -1.2330    1.7123 H       1  UNL1        0.0000
     30 H          -0.4013    0.6902    2.2506 H       1  UNL1        0.0000
     31 H           1.4757    1.8184   -1.8801 H       1  UNL1        0.0000
     32 H          -2.0407   -0.5750   -3.8795 H       1  UNL1        0.0000
     33 H           1.8112    3.8581   -0.0219 H       1  UNL1        0.0000
     34 H           3.5559    5.2666    0.9362 H       1  UNL1        0.0000
     35 H           5.3886    4.3381    2.3671 H       1  UNL1        0.0000
@<TRIPOS>BOND
     1     1     2    1
     2     2     3    2
     3     3     4    1
     4     4     5   ar
     5     5     6   ar
     6     6     7   ar
     7     7     8    1
     8     8     9    1
     9     9    10    2
    10    10    11    1
    11    11    12   ar
    12    12    13   ar
    13    13    14   ar
    14    14    15   ar
    15     9    16    1
    16    16    17   ar
    17    17    18   ar
    18    18    19   ar
    19    19    20   ar
    20    20    21   ar
    21    21    22   ar
    22    22    23   ar
    23    23    24   ar
    24    15     1    1
    25    24    16   ar
    26    15     4   ar
    27    24    20   ar
    28    14     6   ar
    29    11     7   ar
    30     1    25    1
    31     1    26    1
    32     2    27    1
    33     3    28    1
    34     8    29    1
    35     8    30    1
    36    10    31    1
    37    13    32    1
    38    17    33    1
    39    18    34    1
    40    19    35    1
