@<TRIPOS>MOLECULE
*****
 32 34 0 0 0
SMALL
GASTEIGER

@<TRIPOS>ATOM
      1 O           0.3264   -0.9170   -2.3966 O.2     1  UNL1       -0.2864
      2 C           0.6931   -0.6255   -1.2638 C.ar    1  UNL1        0.2003
      3 C           2.1281   -0.5065   -0.9464 C.ar    1  UNL1        0.0648
      4 C           3.0960   -0.6869   -1.9421 C.ar    1  UNL1       -0.0439
      5 C           4.4506   -0.5740   -1.6218 C.ar    1  UNL1       -0.0193
      6 C           4.8207   -0.2832   -0.3106 C.ar    1  UNL1        0.1204
      7 O           6.1316   -0.1647    0.0449 O.3     1  UNL1       -0.5066
      8 C           3.8629   -0.1039    0.6832 C.ar    1  UNL1        0.0228
      9 C           2.5111   -0.2162    0.3614 C.ar    1  UNL1        0.1419
     10 O           1.6069   -0.0333    1.3758 O.2     1  UNL1       -0.4620
     11 C           0.2722   -0.1211    1.0623 C.ar    1  UNL1        0.1040
     12 C          -0.2558   -0.3827   -0.1437 C.ar    1  UNL1        0.0678
     13 C          -1.7187   -0.4578   -0.3272 C.ar    1  UNL1        0.0304
     14 C          -2.2762   -1.6668   -0.7768 C.ar    1  UNL1       -0.0503
     15 C          -3.6529   -1.7949   -0.9559 C.ar    1  UNL1       -0.0610
     16 C          -4.4884   -0.7160   -0.6876 C.ar    1  UNL1       -0.0583
     17 C          -3.9507    0.4960   -0.2469 C.ar    1  UNL1       -0.0193
     18 C          -2.5688    0.6394   -0.0694 C.ar    1  UNL1        0.1280
     19 O          -1.9626    1.7974    0.3513 O.3     1  UNL1       -0.4945
     20 C          -2.7692    2.9644    0.4423 C.3     1  UNL1        0.0788
     21 H           2.7950   -0.9138   -2.9628 H       1  UNL1        0.0627
     22 H           5.1936   -0.7149   -2.4009 H       1  UNL1        0.0654
     23 H           6.6853   -0.3090   -0.7403 H       1  UNL1        0.2921
     24 H           4.1693    0.1221    1.7003 H       1  UNL1        0.0691
     25 H          -0.3222    0.0604    1.9500 H       1  UNL1        0.1037
     26 H          -1.6348   -2.5174   -1.0001 H       1  UNL1        0.0625
     27 H          -4.0691   -2.7349   -1.3089 H       1  UNL1        0.0618
     28 H          -5.5621   -0.8144   -0.8269 H       1  UNL1        0.0619
     29 H          -4.6404    1.3102   -0.0510 H       1  UNL1        0.0654
     30 H          -3.2416    3.1981   -0.5176 H       1  UNL1        0.0660
     31 H          -2.1153    3.8022    0.7033 H       1  UNL1        0.0660
     32 H          -3.5142    2.8648    1.2382 H       1  UNL1        0.0660
@<TRIPOS>BOND
     1     1     2    2
     2     2     3   ar
     3     3     4   ar
     4     4     5   ar
     5     5     6   ar
     6     6     7    1
     7     6     8   ar
     8     8     9   ar
     9     9    10   ar
    10    10    11   ar
    11    11    12   ar
    12    12    13    1
    13    13    14   ar
    14    14    15   ar
    15    15    16   ar
    16    16    17   ar
    17    17    18   ar
    18    18    19    1
    19    19    20    1
    20    12     2   ar
    21     9     3   ar
    22    18    13   ar
    23     4    21    1
    24     5    22    1
    25     7    23    1
    26     8    24    1
    27    11    25    1
    28    14    26    1
    29    15    27    1
    30    16    28    1
    31    17    29    1
    32    20    30    1
    33    20    31    1
    34    20    32    1
