@<TRIPOS>MOLECULE
*****
 24 25 0 0 0
SMALL
GASTEIGER

@<TRIPOS>ATOM
      1 O           1.3386   -1.5845    0.8677 O.2     1  UNL1       -0.2868
      2 C           0.7680   -0.5843    0.4507 C.ar    1  UNL1        0.1956
      3 C          -0.6984   -0.5385    0.3098 C.ar    1  UNL1        0.0644
      4 C          -1.4819   -1.6512    0.6321 C.ar    1  UNL1       -0.0439
      5 C          -2.8683   -1.5807    0.4899 C.ar    1  UNL1       -0.0193
      6 C          -3.4567   -0.4055    0.0299 C.ar    1  UNL1        0.1204
      7 O          -4.8144   -0.3853   -0.0921 O.3     1  UNL1       -0.5066
      8 C          -2.6832    0.7066   -0.2924 C.ar    1  UNL1        0.0228
      9 C          -1.2966    0.6344   -0.1499 C.ar    1  UNL1        0.1418
     10 O          -0.5756    1.7556   -0.4778 O.2     1  UNL1       -0.4623
     11 C           0.7906    1.6948   -0.3499 C.ar    1  UNL1        0.0993
     12 C           1.5094    0.6421    0.0640 C.ar    1  UNL1        0.0345
     13 C           3.0039    0.6487    0.1964 C.3     1  UNL1       -0.0240
     14 C           3.6876   -0.1055   -0.9355 C.3     1  UNL1       -0.0611
     15 H          -1.0177   -2.5668    0.9915 H       1  UNL1        0.0627
     16 H          -3.4875   -2.4391    0.7372 H       1  UNL1        0.0654
     17 H          -5.0909    0.4867   -0.4193 H       1  UNL1        0.2921
     18 H          -3.1371    1.6247   -0.6506 H       1  UNL1        0.0691
     19 H           1.2294    2.6413   -0.6412 H       1  UNL1        0.1033
     20 H           3.2960    0.2154    1.1604 H       1  UNL1        0.0313
     21 H           3.3761    1.6809    0.2044 H       1  UNL1        0.0313
     22 H           3.3968   -1.1609   -0.9500 H       1  UNL1        0.0233
     23 H           4.7748   -0.0592   -0.8154 H       1  UNL1        0.0233
     24 H           3.4370    0.3302   -1.9086 H       1  UNL1        0.0233
@<TRIPOS>BOND
     1     1     2    2
     2     2     3   ar
     3     3     4   ar
     4     4     5   ar
     5     5     6   ar
     6     6     7    1
     7     6     8   ar
     8     8     9   ar
     9     9    10   ar
    10    10    11   ar
    11    11    12   ar
    12    12    13    1
    13    13    14    1
    14    12     2   ar
    15     9     3   ar
    16     4    15    1
    17     5    16    1
    18     7    17    1
    19     8    18    1
    20    11    19    1
    21    13    20    1
    22    13    21    1
    23    14    22    1
    24    14    23    1
    25    14    24    1
