@<TRIPOS>MOLECULE
*****
 31 33 0 0 0
SMALL
GASTEIGER

@<TRIPOS>ATOM
      1 O           0.4795   -1.9102    1.0890 O.2     1  UNL1       -0.2868
      2 C           0.7841   -1.0362    0.2865 C.ar    1  UNL1        0.1959
      3 C           2.0496   -0.2917    0.4149 C.ar    1  UNL1        0.0644
      4 C           2.9072   -0.5225    1.4967 C.ar    1  UNL1       -0.0439
      5 C           4.1039    0.1904    1.5965 C.ar    1  UNL1       -0.0193
      6 C           4.4281    1.1229    0.6132 C.ar    1  UNL1        0.1204
      7 O           5.5865    1.8395    0.6720 O.3     1  UNL1       -0.5066
      8 C           3.5795    1.3547   -0.4655 C.ar    1  UNL1        0.0228
      9 C           2.3848    0.6432   -0.5629 C.ar    1  UNL1        0.1418
     10 O           1.5838    0.9035   -1.6458 O.2     1  UNL1       -0.4623
     11 C           0.3896    0.2304   -1.7304 C.ar    1  UNL1        0.0996
     12 C          -0.0795   -0.6804   -0.8655 C.ar    1  UNL1        0.0390
     13 C          -1.3914   -1.3904   -1.0246 C.3     1  UNL1        0.0041
     14 C          -2.5228   -0.7116   -0.2863 C.ar    1  UNL1       -0.0428
     15 C          -2.7785   -1.0166    1.0579 C.ar    1  UNL1       -0.0583
     16 C          -3.8106   -0.3771    1.7461 C.ar    1  UNL1       -0.0615
     17 C          -4.5950    0.5759    1.0998 C.ar    1  UNL1       -0.0617
     18 C          -4.3468    0.8923   -0.2345 C.ar    1  UNL1       -0.0615
     19 C          -3.3145    0.2543   -0.9246 C.ar    1  UNL1       -0.0583
     20 H           2.6437   -1.2539    2.2579 H       1  UNL1        0.0627
     21 H           4.7631    0.0058    2.4393 H       1  UNL1        0.0654
     22 H           6.0758    1.5831    1.4714 H       1  UNL1        0.2921
     23 H           3.8489    2.0848   -1.2230 H       1  UNL1        0.0691
     24 H          -0.1491    0.5498   -2.6140 H       1  UNL1        0.1033
     25 H          -1.6535   -1.4567   -2.0895 H       1  UNL1        0.0364
     26 H          -1.3111   -2.4355   -0.6990 H       1  UNL1        0.0364
     27 H          -2.1686   -1.7536    1.5786 H       1  UNL1        0.0620
     28 H          -3.9986   -0.6222    2.7881 H       1  UNL1        0.0618
     29 H          -5.3977    1.0736    1.6372 H       1  UNL1        0.0618
     30 H          -4.9569    1.6380   -0.7374 H       1  UNL1        0.0618
     31 H          -3.1334    0.5162   -1.9643 H       1  UNL1        0.0620
@<TRIPOS>BOND
     1     1     2    2
     2     2     3   ar
     3     3     4   ar
     4     4     5   ar
     5     5     6   ar
     6     6     7    1
     7     6     8   ar
     8     8     9   ar
     9     9    10   ar
    10    10    11   ar
    11    11    12   ar
    12    12    13    1
    13    13    14    1
    14    14    15   ar
    15    15    16   ar
    16    16    17   ar
    17    17    18   ar
    18    18    19   ar
    19    12     2   ar
    20     9     3   ar
    21    19    14   ar
    22     4    20    1
    23     5    21    1
    24     7    22    1
    25     8    23    1
    26    11    24    1
    27    13    25    1
    28    13    26    1
    29    15    27    1
    30    16    28    1
    31    17    29    1
    32    18    30    1
    33    19    31    1
