@<TRIPOS>MOLECULE
*****
 34 36 0 0 0
SMALL
GASTEIGER

@<TRIPOS>ATOM
      1 O          -1.3925    1.5285    1.8623 O.2     1  UNL1       -0.2868
      2 C          -1.3107    0.4887    1.2198 C.ar    1  UNL1        0.1956
      3 C          -2.3673    0.0842    0.2761 C.ar    1  UNL1        0.0644
      4 C          -3.4934    0.8911    0.0764 C.ar    1  UNL1       -0.0439
      5 C          -4.4828    0.4887   -0.8232 C.ar    1  UNL1       -0.0193
      6 C          -4.3335   -0.7142   -1.5105 C.ar    1  UNL1        0.1204
      7 O          -5.2757   -1.1439   -2.3974 O.3     1  UNL1       -0.5066
      8 C          -3.2157   -1.5202   -1.3148 C.ar    1  UNL1        0.0228
      9 C          -2.2289   -1.1172   -0.4166 C.ar    1  UNL1        0.1418
     10 O          -1.1473   -1.9458   -0.2564 O.2     1  UNL1       -0.4623
     11 C          -0.1645   -1.5488    0.6171 C.ar    1  UNL1        0.0993
     12 C          -0.1493   -0.4243    1.3462 C.ar    1  UNL1        0.0350
     13 C           0.9579   -0.0500    2.2918 C.3     1  UNL1       -0.0171
     14 C           1.8450    1.0968    1.7863 C.3     1  UNL1       -0.0235
     15 C           2.6393    0.7335    0.5537 C.ar    1  UNL1       -0.0470
     16 C           3.7891   -0.0614    0.6562 C.ar    1  UNL1       -0.0586
     17 C           4.5073   -0.4160   -0.4867 C.ar    1  UNL1       -0.0615
     18 C           4.0828    0.0183   -1.7410 C.ar    1  UNL1       -0.0617
     19 C           2.9407    0.8089   -1.8538 C.ar    1  UNL1       -0.0615
     20 C           2.2217    1.1656   -0.7123 C.ar    1  UNL1       -0.0586
     21 H          -3.5988    1.8281    0.6193 H       1  UNL1        0.0627
     22 H          -5.3533    1.1203   -0.9725 H       1  UNL1        0.0654
     23 H          -5.9952   -0.4920   -2.4342 H       1  UNL1        0.2921
     24 H          -3.1159   -2.4548   -1.8589 H       1  UNL1        0.0691
     25 H           0.6322   -2.2826    0.6328 H       1  UNL1        0.1033
     26 H           0.5189    0.2390    3.2553 H       1  UNL1        0.0318
     27 H           1.5801   -0.9296    2.5039 H       1  UNL1        0.0318
     28 H           1.2464    1.9955    1.5927 H       1  UNL1        0.0316
     29 H           2.5488    1.3799    2.5799 H       1  UNL1        0.0316
     30 H           4.1331   -0.4075    1.6281 H       1  UNL1        0.0620
     31 H           5.3993   -1.0306   -0.3985 H       1  UNL1        0.0618
     32 H           4.6426   -0.2577   -2.6306 H       1  UNL1        0.0618
     33 H           2.6089    1.1484   -2.8315 H       1  UNL1        0.0618
     34 H           1.3307    1.7813   -0.8166 H       1  UNL1        0.0620
@<TRIPOS>BOND
     1     1     2    2
     2     2     3   ar
     3     3     4   ar
     4     4     5   ar
     5     5     6   ar
     6     6     7    1
     7     6     8   ar
     8     8     9   ar
     9     9    10   ar
    10    10    11   ar
    11    11    12   ar
    12    12    13    1
    13    13    14    1
    14    14    15    1
    15    15    16   ar
    16    16    17   ar
    17    17    18   ar
    18    18    19   ar
    19    19    20   ar
    20    12     2   ar
    21     9     3   ar
    22    20    15   ar
    23     4    21    1
    24     5    22    1
    25     7    23    1
    26     8    24    1
    27    11    25    1
    28    13    26    1
    29    13    27    1
    30    14    28    1
    31    14    29    1
    32    16    30    1
    33    17    31    1
    34    18    32    1
    35    19    33    1
    36    20    34    1
