@<TRIPOS>MOLECULE
*****
 42 45 0 0 0
SMALL
GASTEIGER

@<TRIPOS>ATOM
      1 O           5.2916   -2.7832    1.0806 O.2     1  UNL1       -0.2871
      2 C           4.5130   -1.9021    0.7381 C.ar    1  UNL1        0.1902
      3 C           4.9848   -0.6030    0.2281 C.ar    1  UNL1        0.0311
      4 C           6.3626   -0.3640    0.1305 C.ar    1  UNL1       -0.0503
      5 C           6.8269    0.8607   -0.3502 C.ar    1  UNL1       -0.0610
      6 C           5.9193    1.8466   -0.7335 C.ar    1  UNL1       -0.0611
      7 C           4.5464    1.6094   -0.6366 C.ar    1  UNL1       -0.0518
      8 C           4.0729    0.3806   -0.1542 C.ar    1  UNL1        0.0148
      9 C           2.6134    0.1373   -0.0547 C.ar    1  UNL1        0.1147
     10 N           1.7759    1.0622   -0.4146 N.ar    1  UNL1       -0.2399
     11 C           0.4112    0.7581   -0.2918 C.ar    1  UNL1        0.1069
     12 C          -0.0469   -0.4655    0.1902 C.ar    1  UNL1        0.1555
     13 C          -1.4186   -0.7342    0.2997 C.ar    1  UNL1        0.0038
     14 C          -2.3968    0.2062   -0.0683 C.ar    1  UNL1        0.0333
     15 N          -3.7588   -0.0569    0.0380 N.pl3   1  UNL1       -0.3303
     16 C          -4.7769    0.8708   -0.4740 C.3     1  UNL1        0.0093
     17 C          -5.1523    1.9050    0.5778 C.3     1  UNL1       -0.0494
     18 C          -4.2724   -1.2809    0.6684 C.3     1  UNL1        0.0093
     19 C          -4.3890   -2.4104   -0.3451 C.3     1  UNL1       -0.0494
     20 C          -1.9036    1.4327   -0.5519 C.ar    1  UNL1       -0.0384
     21 C          -0.5308    1.7070   -0.6625 C.ar    1  UNL1       -0.0309
     22 O           0.8179   -1.4629    0.5776 O.2     1  UNL1       -0.4516
     23 C           2.1755   -1.1926    0.4675 C.ar    1  UNL1        0.1580
     24 C           3.0622   -2.1222    0.8287 C.ar    1  UNL1        0.0301
     25 H           7.0762   -1.1304    0.4284 H       1  UNL1        0.0625
     26 H           7.8962    1.0450   -0.4255 H       1  UNL1        0.0618
     27 H           6.2790    2.8022   -1.1086 H       1  UNL1        0.0618
     28 H           3.8495    2.3888   -0.9396 H       1  UNL1        0.0624
     29 H          -1.6957   -1.7138    0.6740 H       1  UNL1        0.0674
     30 H          -5.6812    0.3117   -0.7466 H       1  UNL1        0.0461
     31 H          -4.4578    1.3542   -1.4041 H       1  UNL1        0.0461
     32 H          -4.2930    2.5145    0.8732 H       1  UNL1        0.0245
     33 H          -5.5430    1.4238    1.4805 H       1  UNL1        0.0245
     34 H          -5.9256    2.5750    0.1892 H       1  UNL1        0.0245
     35 H          -5.2683   -1.0894    1.0883 H       1  UNL1        0.0461
     36 H          -3.6624   -1.5845    1.5265 H       1  UNL1        0.0461
     37 H          -5.0592   -2.1345   -1.1659 H       1  UNL1        0.0245
     38 H          -4.7921   -3.3078    0.1345 H       1  UNL1        0.0245
     39 H          -3.4189   -2.6662   -0.7817 H       1  UNL1        0.0245
     40 H          -2.5777    2.2291   -0.8516 H       1  UNL1        0.0637
     41 H          -0.2018    2.6712   -1.0396 H       1  UNL1        0.0640
     42 H           2.7480   -3.0875    1.2076 H       1  UNL1        0.0694
@<TRIPOS>BOND
     1     1     2    2
     2     2     3   ar
     3     3     4   ar
     4     4     5   ar
     5     5     6   ar
     6     6     7   ar
     7     7     8   ar
     8     8     9   ar
     9     9    10   ar
    10    10    11   ar
    11    11    12   ar
    12    12    13   ar
    13    13    14   ar
    14    14    15    1
    15    15    16    1
    16    16    17    1
    17    15    18    1
    18    18    19    1
    19    14    20   ar
    20    20    21   ar
    21    12    22   ar
    22    22    23   ar
    23    23    24   ar
    24    24     2   ar
    25     8     3   ar
    26    23     9    1
    27    21    11   ar
    28     4    25    1
    29     5    26    1
    30     6    27    1
    31     7    28    1
    32    13    29    1
    33    16    30    1
    34    16    31    1
    35    17    32    1
    36    17    33    1
    37    17    34    1
    38    18    35    1
    39    18    36    1
    40    19    37    1
    41    19    38    1
    42    19    39    1
    43    20    40    1
    44    21    41    1
    45    24    42    1
