@<TRIPOS>MOLECULE
*****
 31 34 0 0 0
SMALL
GASTEIGER

@<TRIPOS>ATOM
      1 O          -0.7217    1.8623   -0.5962 O.2     1  UNL1       -0.2665
      2 C          -1.0635    0.7642   -0.1559 C.ar    1  UNL1        0.2668
      3 C          -2.5052    0.4513   -0.1801 C.ar    1  UNL1        0.0632
      4 C          -3.4399    1.3799   -0.6550 C.ar    1  UNL1       -0.0474
      5 C          -4.7964    1.0526   -0.6774 C.ar    1  UNL1       -0.0609
      6 C          -5.2177   -0.1991   -0.2280 C.ar    1  UNL1       -0.0598
      7 C          -4.2845   -1.1241    0.2445 C.ar    1  UNL1       -0.0376
      8 C          -2.9292   -0.7908    0.2640 C.ar    1  UNL1        0.0535
      9 N          -1.9992   -1.7038    0.7458 N.ar    1  UNL1       -0.3343
     10 C          -0.6520   -1.4625    0.8391 C.ar    1  UNL1        0.1656
     11 S           0.2201   -2.6737    1.6196 S.2     1  UNL1       -0.0124
     12 N          -0.1916   -0.2322    0.3366 N.ar    1  UNL1       -0.2562
     13 C           1.2174    0.0760    0.2909 C.ar    1  UNL1        0.0556
     14 C           1.6947    1.3022    0.8151 C.ar    1  UNL1       -0.0340
     15 C           3.0541    1.6342    0.7720 C.ar    1  UNL1       -0.0142
     16 C           3.9138    0.7317    0.1899 C.ar    1  UNL1        0.1664
     17 C           3.4635   -0.4537   -0.3385 C.ar    1  UNL1        0.1682
     18 C           2.1297   -0.8084   -0.3088 C.ar    1  UNL1        0.0079
     19 O           4.4679   -1.1931   -0.8824 O.3     1  UNL1       -0.4525
     20 C           5.6031   -0.3417   -0.6219 C.3     1  UNL1        0.2332
     21 O           5.2573    0.8851    0.0536 O.3     1  UNL1       -0.4526
     22 H          -3.1144    2.3560   -1.0097 H       1  UNL1        0.0626
     23 H          -5.5228    1.7731   -1.0466 H       1  UNL1        0.0618
     24 H          -6.2751   -0.4537   -0.2460 H       1  UNL1        0.0618
     25 H          -4.6281   -2.0945    0.5927 H       1  UNL1        0.0638
     26 H          -2.3180   -2.5942    1.1132 H       1  UNL1        0.1678
     27 H           1.0048    2.0081    1.2738 H       1  UNL1        0.0639
     28 H           3.4158    2.5720    1.1780 H       1  UNL1        0.0656
     29 H           1.8156   -1.7371   -0.7714 H       1  UNL1        0.0676
     30 H           6.3203   -0.8930   -0.0028 H       1  UNL1        0.1166
     31 H           6.0810   -0.0933   -1.5766 H       1  UNL1        0.1166
@<TRIPOS>BOND
     1     1     2    2
     2     2     3   ar
     3     3     4   ar
     4     4     5   ar
     5     5     6   ar
     6     6     7   ar
     7     7     8   ar
     8     8     9   ar
     9     9    10   ar
    10    10    11    2
    11    10    12   ar
    12    12    13    1
    13    13    14   ar
    14    14    15   ar
    15    15    16   ar
    16    16    17   ar
    17    17    18   ar
    18    17    19    1
    19    19    20    1
    20    20    21    1
    21    12     2   ar
    22    18    13   ar
    23     8     3   ar
    24    21    16    1
    25     4    22    1
    26     5    23    1
    27     6    24    1
    28     7    25    1
    29     9    26    1
    30    14    27    1
    31    15    28    1
    32    18    29    1
    33    20    30    1
    34    20    31    1
