@<TRIPOS>MOLECULE
*****
 34 36 0 0 0
SMALL
GASTEIGER

@<TRIPOS>ATOM
      1 O           0.2401   -1.0952   -1.1919 O.2     1  UNL1       -0.2669
      2 C           0.8155   -0.3882   -0.3662 C.ar    1  UNL1        0.2626
      3 C           2.2887   -0.3682   -0.3924 C.ar    1  UNL1        0.0629
      4 C           3.0087   -1.0988   -1.3450 C.ar    1  UNL1       -0.0474
      5 C           4.4039   -1.0603   -1.3401 C.ar    1  UNL1       -0.0609
      6 C           5.0757   -0.2952   -0.3860 C.ar    1  UNL1       -0.0598
      7 C           4.3547    0.4318    0.5638 C.ar    1  UNL1       -0.0376
      8 C           2.9598    0.3896    0.5526 C.ar    1  UNL1        0.0535
      9 N           2.2347    1.1079    1.4952 N.ar    1  UNL1       -0.3346
     10 C           0.8684    1.1377    1.5624 C.ar    1  UNL1        0.1613
     11 S           0.2396    2.0815    2.8019 S.2     1  UNL1       -0.0128
     12 N           0.1655    0.3947    0.6083 N.ar    1  UNL1       -0.2850
     13 C          -1.3216    0.3657    0.5920 C.3     1  UNL1        0.0397
     14 C          -1.8945   -1.0175    0.9720 C.3     1  UNL1       -0.0319
     15 C          -3.2677   -1.2897    0.3534 C.3     1  UNL1       -0.0512
     16 C          -4.1057   -0.0216    0.2575 C.3     1  UNL1       -0.0529
     17 C          -3.4464    1.0450   -0.6199 C.3     1  UNL1       -0.0512
     18 C          -1.9237    0.9086   -0.7159 C.3     1  UNL1       -0.0319
     19 H           2.4862   -1.6967   -2.0889 H       1  UNL1        0.0626
     20 H           4.9652   -1.6271   -2.0794 H       1  UNL1        0.0618
     21 H           6.1630   -0.2661   -0.3824 H       1  UNL1        0.0618
     22 H           4.8912    1.0225    1.3011 H       1  UNL1        0.0638
     23 H           2.7274    1.6569    2.1912 H       1  UNL1        0.1678
     24 H          -1.6914    1.0484    1.3620 H       1  UNL1        0.0529
     25 H          -1.2222   -1.8386    0.7009 H       1  UNL1        0.0285
     26 H          -1.9741   -1.0643    2.0662 H       1  UNL1        0.0285
     27 H          -3.1380   -1.7146   -0.6499 H       1  UNL1        0.0266
     28 H          -3.7930   -2.0455    0.9482 H       1  UNL1        0.0266
     29 H          -5.1021   -0.2546   -0.1350 H       1  UNL1        0.0265
     30 H          -4.2572    0.3835    1.2661 H       1  UNL1        0.0265
     31 H          -3.7055    2.0348   -0.2245 H       1  UNL1        0.0266
     32 H          -3.8665    1.0032   -1.6322 H       1  UNL1        0.0266
     33 H          -1.4854    1.8828   -0.9644 H       1  UNL1        0.0285
     34 H          -1.6935    0.2479   -1.5584 H       1  UNL1        0.0285
@<TRIPOS>BOND
     1     1     2    2
     2     2     3   ar
     3     3     4   ar
     4     4     5   ar
     5     5     6   ar
     6     6     7   ar
     7     7     8   ar
     8     8     9   ar
     9     9    10   ar
    10    10    11    2
    11    10    12   ar
    12    12    13    1
    13    13    14    1
    14    14    15    1
    15    15    16    1
    16    16    17    1
    17    17    18    1
    18    12     2   ar
    19    18    13    1
    20     8     3   ar
    21     4    19    1
    22     5    20    1
    23     6    21    1
    24     7    22    1
    25     9    23    1
    26    13    24    1
    27    14    25    1
    28    14    26    1
    29    15    27    1
    30    15    28    1
    31    16    29    1
    32    16    30    1
    33    17    31    1
    34    17    32    1
    35    18    33    1
    36    18    34    1
