@<TRIPOS>MOLECULE
*****
 42 47 0 0 0
SMALL
GASTEIGER

@<TRIPOS>ATOM
      1 O          -4.7454    1.8405    2.0727 O.2     1  UNL1       -0.2865
      2 C          -4.3142    1.1221    1.1764 C.ar    1  UNL1        0.1971
      3 C          -5.2412    0.4666    0.2198 C.ar    1  UNL1        0.0456
      4 C          -6.6220    0.6618    0.3298 C.ar    1  UNL1       -0.0489
      5 C          -7.4807    0.0346   -0.5716 C.ar    1  UNL1       -0.0610
      6 C          -6.9607   -0.7872   -1.5721 C.ar    1  UNL1       -0.0598
      7 C          -5.5800   -0.9806   -1.6796 C.ar    1  UNL1       -0.0377
      8 C          -4.7053   -0.3410   -0.7959 C.ar    1  UNL1        0.0506
      9 N          -3.3216   -0.5675   -0.8649 N.ar    1  UNL1       -0.3539
     10 C          -2.4016    0.0804   -0.0245 C.ar    1  UNL1        0.0512
     11 C          -1.0253   -0.1500   -0.1584 C.ar    1  UNL1       -0.0285
     12 C          -0.0881    0.4492    0.7083 C.ar    1  UNL1        0.0024
     13 C           1.3655    0.2212    0.5641 C.ar    1  UNL1        0.0730
     14 C           1.9826    0.1161   -0.6840 C.ar    1  UNL1       -0.0117
     15 C           3.3622   -0.0969   -0.6736 C.ar    1  UNL1        0.0510
     16 N           4.2542   -0.2373   -1.7104 N.ar    1  UNL1       -0.3540
     17 C           5.5282   -0.4357   -1.2335 C.ar    1  UNL1        0.0504
     18 C           6.7302   -0.6271   -1.9115 C.ar    1  UNL1       -0.0196
     19 C           7.8403   -0.7965   -1.0981 C.ar    1  UNL1        0.0295
     20 N           7.8197   -0.7861    0.2526 N.ar    1  UNL1       -0.2625
     21 C           6.6374   -0.5972    0.8895 C.ar    1  UNL1        0.0373
     22 C           5.4554   -0.4168    0.1595 C.ar    1  UNL1        0.0269
     23 C           4.0867   -0.1996    0.5115 C.ar    1  UNL1        0.0270
     24 C           3.3951   -0.0777    1.7201 C.ar    1  UNL1        0.0380
     25 N           2.0551    0.1341    1.7303 N.ar    1  UNL1       -0.2542
     26 C          -0.5825    1.2699    1.7401 C.ar    1  UNL1       -0.0518
     27 C          -1.9518    1.4965    1.8990 C.ar    1  UNL1       -0.0483
     28 C          -2.8547    0.8980    1.0202 C.ar    1  UNL1        0.0456
     29 H          -7.0248    1.2957    1.1165 H       1  UNL1        0.0625
     30 H          -8.5550    0.1810   -0.4886 H       1  UNL1        0.0618
     31 H          -7.6335   -1.2846   -2.2670 H       1  UNL1        0.0618
     32 H          -5.1979   -1.6371   -2.4565 H       1  UNL1        0.0638
     33 H          -2.9656   -0.9701   -1.7215 H       1  UNL1        0.1659
     34 H          -0.6801   -0.8268   -0.9362 H       1  UNL1        0.0645
     35 H           1.4312    0.2135   -1.6105 H       1  UNL1        0.0660
     36 H           4.0086   -0.2005   -2.6894 H       1  UNL1        0.1659
     37 H           6.8034   -0.6435   -2.9909 H       1  UNL1        0.0653
     38 H           8.8236   -0.9524   -1.5354 H       1  UNL1        0.0830
     39 H           6.6715   -0.5960    1.9730 H       1  UNL1        0.0836
     40 H           3.8766   -0.1416    2.6893 H       1  UNL1        0.0836
     41 H           0.1117    1.7382    2.4378 H       1  UNL1        0.0624
     42 H          -2.3073    2.1302    2.7081 H       1  UNL1        0.0625
@<TRIPOS>BOND
     1     1     2    2
     2     2     3   ar
     3     3     4   ar
     4     4     5   ar
     5     5     6   ar
     6     6     7   ar
     7     7     8   ar
     8     8     9   ar
     9     9    10   ar
    10    10    11   ar
    11    11    12   ar
    12    12    13    1
    13    13    14   ar
    14    14    15   ar
    15    15    16   ar
    16    16    17   ar
    17    17    18   ar
    18    18    19   ar
    19    19    20   ar
    20    20    21   ar
    21    21    22   ar
    22    22    23   ar
    23    23    24   ar
    24    24    25   ar
    25    12    26   ar
    26    26    27   ar
    27    27    28   ar
    28    28     2   ar
    29     8     3   ar
    30    28    10   ar
    31    25    13   ar
    32    23    15   ar
    33    22    17   ar
    34     4    29    1
    35     5    30    1
    36     6    31    1
    37     7    32    1
    38     9    33    1
    39    11    34    1
    40    14    35    1
    41    16    36    1
    42    18    37    1
    43    19    38    1
    44    21    39    1
    45    24    40    1
    46    26    41    1
    47    27    42    1
