@<TRIPOS>MOLECULE
*****
 37 41 0 0 0
SMALL
GASTEIGER

@<TRIPOS>ATOM
      1 O          -3.7606    1.8310   -1.6784 O.2     1  UNL1       -0.2865
      2 C          -3.3032    0.9331   -0.9783 C.ar    1  UNL1        0.1971
      3 C          -4.2032   -0.0039   -0.2602 C.ar    1  UNL1        0.0456
      4 C          -5.5912    0.1161   -0.3854 C.ar    1  UNL1       -0.0489
      5 C          -6.4238   -0.7670    0.3004 C.ar    1  UNL1       -0.0610
      6 C          -5.8703   -1.7588    1.1110 C.ar    1  UNL1       -0.0598
      7 C          -4.4824   -1.8760    1.2346 C.ar    1  UNL1       -0.0377
      8 C          -3.6347   -1.0120    0.5348 C.ar    1  UNL1        0.0506
      9 N          -2.2416   -1.0875    0.6945 N.ar    1  UNL1       -0.3539
     10 C          -1.3499   -0.2741   -0.0238 C.ar    1  UNL1        0.0512
     11 C           0.0340   -0.4180    0.1323 C.ar    1  UNL1       -0.0286
     12 C           0.9307    0.4312   -0.5370 C.ar    1  UNL1        0.0003
     13 C           2.3735    0.2575   -0.3641 C.ar    1  UNL1        0.0476
     14 C           3.1323   -0.8917   -0.2158 C.ar    1  UNL1       -0.0272
     15 C           4.4969   -0.5198   -0.0664 C.ar    1  UNL1        0.0183
     16 C           5.6935   -1.2248    0.1087 C.ar    1  UNL1        0.0367
     17 N           6.8715   -0.5631    0.2282 N.ar    1  UNL1       -0.2625
     18 C           6.8684    0.7875    0.1742 C.ar    1  UNL1        0.0295
     19 C           5.7400    1.5760    0.0031 C.ar    1  UNL1       -0.0196
     20 C           4.5446    0.8711   -0.1177 C.ar    1  UNL1        0.0498
     21 N           3.2554    1.3152   -0.2946 N.ar    1  UNL1       -0.3541
     22 C           0.4209    1.4403   -1.3666 C.ar    1  UNL1       -0.0518
     23 C          -0.9575    1.6092   -1.5147 C.ar    1  UNL1       -0.0483
     24 C          -1.8355    0.7598   -0.8370 C.ar    1  UNL1        0.0456
     25 H          -6.0200    0.8958   -1.0108 H       1  UNL1        0.0625
     26 H          -7.5035   -0.6769    0.2082 H       1  UNL1        0.0618
     27 H          -6.5220   -2.4393    1.6541 H       1  UNL1        0.0618
     28 H          -4.0730   -2.6453    1.8837 H       1  UNL1        0.0638
     29 H          -1.8723   -1.9519    1.0699 H       1  UNL1        0.1659
     30 H           0.4189   -1.1899    0.7942 H       1  UNL1        0.0645
     31 H           2.7483   -1.9037   -0.2253 H       1  UNL1        0.0645
     32 H           5.7408   -2.3064    0.1578 H       1  UNL1        0.0836
     33 H           7.8483    1.2472    0.2773 H       1  UNL1        0.0830
     34 H           5.7944    2.6558   -0.0331 H       1  UNL1        0.0653
     35 H           2.9898    2.2884   -0.3444 H       1  UNL1        0.1659
     36 H           1.0865    2.0981   -1.9204 H       1  UNL1        0.0624
     37 H          -1.3444    2.3970   -2.1574 H       1  UNL1        0.0625
@<TRIPOS>BOND
     1     1     2    2
     2     2     3   ar
     3     3     4   ar
     4     4     5   ar
     5     5     6   ar
     6     6     7   ar
     7     7     8   ar
     8     8     9   ar
     9     9    10   ar
    10    10    11   ar
    11    11    12   ar
    12    12    13    1
    13    13    14   ar
    14    14    15   ar
    15    15    16   ar
    16    16    17   ar
    17    17    18   ar
    18    18    19   ar
    19    19    20   ar
    20    20    21   ar
    21    12    22   ar
    22    22    23   ar
    23    23    24   ar
    24    24     2   ar
    25     8     3   ar
    26    24    10   ar
    27    21    13   ar
    28    20    15   ar
    29     4    25    1
    30     5    26    1
    31     6    27    1
    32     7    28    1
    33     9    29    1
    34    11    30    1
    35    14    31    1
    36    16    32    1
    37    18    33    1
    38    19    34    1
    39    21    35    1
    40    22    36    1
    41    23    37    1
