@<TRIPOS>MOLECULE
*****
 42 46 0 0 0
SMALL
GASTEIGER

@<TRIPOS>ATOM
      1 O          -4.8979   -2.6729    0.2876 O.2     1  UNL1       -0.2865
      2 C          -4.4170   -1.6111   -0.0938 C.ar    1  UNL1        0.1971
      3 C          -5.2748   -0.5665   -0.7086 C.ar    1  UNL1        0.0456
      4 C          -6.6466   -0.7866   -0.8709 C.ar    1  UNL1       -0.0489
      5 C          -7.4418    0.2097   -1.4373 C.ar    1  UNL1       -0.0610
      6 C          -6.8681    1.4185   -1.8319 C.ar    1  UNL1       -0.0598
      7 C          -5.4960    1.6345   -1.6705 C.ar    1  UNL1       -0.0377
      8 C          -4.6824    0.6364   -1.1248 C.ar    1  UNL1        0.0506
      9 N          -3.3134    0.8633   -0.9117 N.ar    1  UNL1       -0.3539
     10 C          -2.4507   -0.1203   -0.4013 C.ar    1  UNL1        0.0511
     11 C          -1.0840    0.1389   -0.2458 C.ar    1  UNL1       -0.0299
     12 C          -0.2228   -0.8174    0.3226 C.ar    1  UNL1       -0.0145
     13 C           1.2051   -0.5366    0.4717 C.ar    1  UNL1        0.0003
     14 C           1.7720   -0.2563    1.7148 C.ar    1  UNL1       -0.0505
     15 C           3.1381    0.0164    1.8137 C.ar    1  UNL1       -0.0336
     16 C           3.9336    0.0025    0.6672 C.ar    1  UNL1        0.0891
     17 C           5.3891    0.2877    0.7123 C.ar    1  UNL1        0.0891
     18 C           6.1910    0.2396   -0.4304 C.ar    1  UNL1       -0.0342
     19 C           7.5526    0.5194   -0.3305 C.ar    1  UNL1       -0.0583
     20 C           8.0894    0.8441    0.9072 C.ar    1  UNL1       -0.0436
     21 C           7.2388    0.8728    1.9971 C.ar    1  UNL1        0.0283
     22 N           5.9155    0.6052    1.9293 N.ar    1  UNL1       -0.2534
     23 N           3.3979   -0.2741   -0.5540 N.ar    1  UNL1       -0.2528
     24 C           2.0685   -0.5328   -0.6197 C.ar    1  UNL1        0.0360
     25 C          -0.7597   -2.0423    0.7504 C.ar    1  UNL1       -0.0532
     26 C          -2.1234   -2.3089    0.6156 C.ar    1  UNL1       -0.0484
     27 C          -2.9629   -1.3463    0.0482 C.ar    1  UNL1        0.0456
     28 H          -7.0926   -1.7265   -0.5538 H       1  UNL1        0.0625
     29 H          -8.5093    0.0453   -1.5627 H       1  UNL1        0.0618
     30 H          -7.4929    2.1989   -2.2607 H       1  UNL1        0.0618
     31 H          -5.0728    2.5891   -1.9712 H       1  UNL1        0.0638
     32 H          -2.8914    1.6286   -1.4215 H       1  UNL1        0.1659
     33 H          -0.6802    1.1007   -0.5562 H       1  UNL1        0.0644
     34 H           1.1578   -0.2403    2.6121 H       1  UNL1        0.0625
     35 H           3.5738    0.2417    2.7836 H       1  UNL1        0.0640
     36 H           5.7608   -0.0165   -1.3946 H       1  UNL1        0.0639
     37 H           8.1835    0.4828   -1.2136 H       1  UNL1        0.0619
     38 H           9.1441    1.0677    1.0181 H       1  UNL1        0.0633
     39 H           7.6093    1.1210    2.9871 H       1  UNL1        0.0830
     40 H           1.7035   -0.7523   -1.6209 H       1  UNL1        0.0836
     41 H          -0.1146   -2.7999    1.1937 H       1  UNL1        0.0624
     42 H          -2.5289   -3.2598    0.9543 H       1  UNL1        0.0625
@<TRIPOS>BOND
     1     1     2    2
     2     2     3   ar
     3     3     4   ar
     4     4     5   ar
     5     5     6   ar
     6     6     7   ar
     7     7     8   ar
     8     8     9   ar
     9     9    10   ar
    10    10    11   ar
    11    11    12   ar
    12    12    13    1
    13    13    14   ar
    14    14    15   ar
    15    15    16   ar
    16    16    17    1
    17    17    18   ar
    18    18    19   ar
    19    19    20   ar
    20    20    21   ar
    21    21    22   ar
    22    16    23   ar
    23    23    24   ar
    24    12    25   ar
    25    25    26   ar
    26    26    27   ar
    27    27     2   ar
    28     8     3   ar
    29    27    10   ar
    30    24    13   ar
    31    22    17   ar
    32     4    28    1
    33     5    29    1
    34     6    30    1
    35     7    31    1
    36     9    32    1
    37    11    33    1
    38    14    34    1
    39    15    35    1
    40    18    36    1
    41    19    37    1
    42    20    38    1
    43    21    39    1
    44    24    40    1
    45    25    41    1
    46    26    42    1
