@<TRIPOS>MOLECULE
*****
 34 39 0 0 0
SMALL
GASTEIGER

@<TRIPOS>ATOM
      1 SI         -5.1819    1.3843   -1.4114 Si      1  UNL1        0.0000
      2 C          -6.6157    0.6574   -0.3718 C.2     1  UNL1        0.0000
      3 C          -6.1669   -0.0699    0.6743 C.2     1  UNL1        0.0000
      4 C          -4.7416   -0.1035    0.7271 C.ar    1  UNL1        0.0000
      5 S          -3.7835   -0.9069    1.8837 S.2     1  UNL1        0.0000
      6 C          -2.3407   -0.3397    1.0735 C.ar    1  UNL1        0.0000
      7 C          -2.6225    0.4261   -0.0268 C.ar    1  UNL1        0.0000
      8 N          -1.4407    0.8246   -0.5952 N.ar    1  UNL1        0.0000
      9 C          -0.3985    0.3123    0.1429 C.ar    1  UNL1        0.0000
     10 C           0.9835    0.4507   -0.0515 C.ar    1  UNL1        0.0000
     11 C           1.8555   -0.1812    0.8533 C.ar    1  UNL1        0.0000
     12 C           1.3338   -0.9240    1.9207 C.ar    1  UNL1        0.0000
     13 C          -0.0482   -1.0567    2.1090 C.ar    1  UNL1        0.0000
     14 C          -0.9208   -0.4284    1.2047 C.ar    1  UNL1        0.0000
     15 C           3.2974   -0.0590    0.6792 C.ar    1  UNL1        0.0000
     16 S           4.3141    0.6513    1.8783 S.2     1  UNL1        0.0000
     17 C           5.7414    0.4304    0.9385 C.ar    1  UNL1        0.0000
     18 C           5.3872   -0.1650   -0.2220 C.ar    1  UNL1        0.0000
     19 C           6.1204   -0.5884   -1.3560 C.ar    1  UNL1        0.0000
     20 C           5.3038   -1.1733   -2.3306 C.ar    1  UNL1        0.0000
     21 S           3.5864   -1.2618   -1.9602 S.2     1  UNL1        0.0000
     22 C           4.0345   -0.4551   -0.4053 C.ar    1  UNL1        0.0000
     23 C          -3.9991    0.5623   -0.2268 C.ar    1  UNL1        0.0000
     24 H          -5.1672    0.8128   -2.7806 H       1  UNL1        0.0000
     25 H          -5.1716    2.8668   -1.3504 H       1  UNL1        0.0000
     26 H          -7.6417    0.8455   -0.6453 H       1  UNL1        0.0000
     27 H          -6.7999   -0.5729    1.3946 H       1  UNL1        0.0000
     28 H          -1.3764    1.4005   -1.4237 H       1  UNL1        0.0000
     29 H           1.3692    1.0373   -0.8804 H       1  UNL1        0.0000
     30 H           2.0031   -1.4193    2.6215 H       1  UNL1        0.0000
     31 H          -0.4367   -1.6377    2.9402 H       1  UNL1        0.0000
     32 H           6.7112    0.7435    1.2981 H       1  UNL1        0.0000
     33 H           7.1916   -0.4863   -1.4803 H       1  UNL1        0.0000
     34 H           5.6207   -1.5768   -3.2827 H       1  UNL1        0.0000
@<TRIPOS>BOND
     1     1     2    1
     2     2     3    2
     3     3     4    1
     4     4     5   ar
     5     5     6   ar
     6     6     7   ar
     7     7     8   ar
     8     8     9   ar
     9     9    10   ar
    10    10    11   ar
    11    11    12   ar
    12    12    13   ar
    13    13    14   ar
    14    11    15    1
    15    15    16   ar
    16    16    17   ar
    17    17    18   ar
    18    18    19   ar
    19    19    20   ar
    20    20    21   ar
    21    21    22   ar
    22     7    23   ar
    23    23     1    1
    24    23     4   ar
    25    14     6   ar
    26    22    15   ar
    27    14     9   ar
    28    22    18   ar
    29     1    24    1
    30     1    25    1
    31     2    26    1
    32     3    27    1
    33     8    28    1
    34    10    29    1
    35    12    30    1
    36    13    31    1
    37    17    32    1
    38    19    33    1
    39    20    34    1
