@<TRIPOS>MOLECULE
*****
 36 40 0 0 0
SMALL
GASTEIGER

@<TRIPOS>ATOM
      1 O          -3.0328   -2.2317    2.0109 O.2     1  UNL1       -0.2865
      2 C          -2.7741   -1.3577    1.1896 C.ar    1  UNL1        0.1971
      3 C          -3.8608   -0.6534    0.4638 C.ar    1  UNL1        0.0456
      4 C          -5.1982   -0.9903    0.6973 C.ar    1  UNL1       -0.0489
      5 C          -6.2083   -0.3167    0.0121 C.ar    1  UNL1       -0.0610
      6 C          -5.8816    0.6916   -0.8953 C.ar    1  UNL1       -0.0598
      7 C          -4.5437    1.0267   -1.1262 C.ar    1  UNL1       -0.0377
      8 C          -3.5191    0.3437   -0.4638 C.ar    1  UNL1        0.0506
      9 N          -2.1761    0.7119   -0.6468 N.ar    1  UNL1       -0.3539
     10 C          -1.1122    0.0217   -0.0423 C.ar    1  UNL1        0.0511
     11 C           0.2144    0.3934   -0.2931 C.ar    1  UNL1       -0.0299
     12 C           1.2892   -0.2543    0.3456 C.ar    1  UNL1       -0.0158
     13 C           2.6800    0.1384    0.0654 C.ar    1  UNL1       -0.0156
     14 C           3.1039    1.4682    0.2624 C.ar    1  UNL1       -0.0519
     15 C           4.4192    1.8848    0.0093 C.ar    1  UNL1       -0.0342
     16 C           5.2960    0.9061   -0.4533 C.ar    1  UNL1        0.0858
     17 N           6.6174    0.9160   -0.8011 N.ar    1  UNL1       -0.2571
     18 N           7.0405   -0.2942   -1.2004 N.ar    1  UNL1       -0.0673
     19 N           6.0068   -1.1233   -1.1191 N.ar    1  UNL1       -0.1297
     20 C           4.9276   -0.4144   -0.6632 C.ar    1  UNL1        0.1130
     21 C           3.6088   -0.8128   -0.4032 C.ar    1  UNL1       -0.0247
     22 C           1.0024   -1.2810    1.2611 C.ar    1  UNL1       -0.0532
     23 C          -0.3163   -1.6448    1.5415 C.ar    1  UNL1       -0.0484
     24 C          -1.3664   -0.9876    0.8970 C.ar    1  UNL1        0.0456
     25 H          -5.4502   -1.7707    1.4117 H       1  UNL1        0.0625
     26 H          -7.2496   -0.5736    0.1913 H       1  UNL1        0.0618
     27 H          -6.6718    1.2236   -1.4200 H       1  UNL1        0.0618
     28 H          -4.3125    1.8263   -1.8246 H       1  UNL1        0.0638
     29 H          -1.9610    1.2340   -1.4870 H       1  UNL1        0.1659
     30 H           0.4201    1.1922   -1.0023 H       1  UNL1        0.0644
     31 H           2.3947    2.2061    0.6384 H       1  UNL1        0.0624
     32 H           4.7276    2.9117    0.1723 H       1  UNL1        0.0639
     33 H           7.2761    1.6845   -0.7940 H       1  UNL1        0.1907
     34 H           3.3222   -1.8454   -0.5757 H       1  UNL1        0.0646
     35 H           1.8099   -1.7962    1.7791 H       1  UNL1        0.0624
     36 H          -0.5220   -2.4329    2.2626 H       1  UNL1        0.0625
@<TRIPOS>BOND
     1     1     2    2
     2     2     3   ar
     3     3     4   ar
     4     4     5   ar
     5     5     6   ar
     6     6     7   ar
     7     7     8   ar
     8     8     9   ar
     9     9    10   ar
    10    10    11   ar
    11    11    12   ar
    12    12    13    1
    13    13    14   ar
    14    14    15   ar
    15    15    16   ar
    16    16    17   ar
    17    17    18   ar
    18    18    19   ar
    19    19    20   ar
    20    20    21   ar
    21    12    22   ar
    22    22    23   ar
    23    23    24   ar
    24    24     2   ar
    25     8     3   ar
    26    24    10   ar
    27    21    13   ar
    28    20    16   ar
    29     4    25    1
    30     5    26    1
    31     6    27    1
    32     7    28    1
    33     9    29    1
    34    11    30    1
    35    14    31    1
    36    15    32    1
    37    17    33    1
    38    21    34    1
    39    22    35    1
    40    23    36    1
