@<TRIPOS>MOLECULE
*****
 43 48 0 0 0
SMALL
GASTEIGER

@<TRIPOS>ATOM
      1 O          -4.7545   -2.7223   -1.0995 O.2     1  UNL1       -0.2865
      2 C          -4.3511   -1.6247   -0.7279 C.ar    1  UNL1        0.1971
      3 C          -5.3032   -0.5161   -0.4652 C.ar    1  UNL1        0.0456
      4 C          -6.6766   -0.7076   -0.6489 C.ar    1  UNL1       -0.0489
      5 C          -7.5590    0.3406   -0.3918 C.ar    1  UNL1       -0.0610
      6 C          -7.0700    1.5696    0.0523 C.ar    1  UNL1       -0.0598
      7 C          -5.6966    1.7580    0.2356 C.ar    1  UNL1       -0.0377
      8 C          -4.7979    0.7228   -0.0394 C.ar    1  UNL1        0.0506
      9 N          -3.4227    0.8855    0.1905 N.ar    1  UNL1       -0.3539
     10 C          -2.4787   -0.1088   -0.1125 C.ar    1  UNL1        0.0511
     11 C          -1.1120    0.1165    0.0916 C.ar    1  UNL1       -0.0299
     12 C          -0.1596   -0.8906   -0.1552 C.ar    1  UNL1       -0.0158
     13 C           1.2751   -0.6372    0.0552 C.ar    1  UNL1       -0.0158
     14 C           2.0154   -1.4265    0.9483 C.ar    1  UNL1       -0.0533
     15 C           3.3824   -1.2050    1.1696 C.ar    1  UNL1       -0.0514
     16 C           4.0355   -0.1666    0.4789 C.ar    1  UNL1        0.0090
     17 C           3.2905    0.6121   -0.4094 C.ar    1  UNL1        0.0492
     18 C           1.9232    0.4027   -0.6378 C.ar    1  UNL1       -0.0300
     19 N           4.1501    1.5400   -0.9520 N.ar    1  UNL1       -0.3390
     20 C           5.4061    1.3857   -0.4394 C.ar    1  UNL1        0.1391
     21 N           6.4621    2.1494   -0.7757 N.ar    1  UNL1       -0.2375
     22 C           7.5948    1.7911   -0.1285 C.ar    1  UNL1        0.0299
     23 C           7.7107    0.7572    0.7921 C.ar    1  UNL1       -0.0429
     24 C           6.5817   -0.0020    1.1034 C.ar    1  UNL1       -0.0490
     25 C           5.3764    0.3270    0.4594 C.ar    1  UNL1        0.0264
     26 C          -0.6114   -2.1445   -0.6001 C.ar    1  UNL1       -0.0532
     27 C          -1.9727   -2.3909   -0.7894 C.ar    1  UNL1       -0.0484
     28 C          -2.8995   -1.3768   -0.5382 C.ar    1  UNL1        0.0456
     29 H          -7.0555   -1.6695   -0.9867 H       1  UNL1        0.0625
     30 H          -8.6277    0.1963   -0.5310 H       1  UNL1        0.0618
     31 H          -7.7613    2.3823    0.2632 H       1  UNL1        0.0618
     32 H          -5.3387    2.7181    0.5973 H       1  UNL1        0.0638
     33 H          -3.0810    1.8344    0.2736 H       1  UNL1        0.1659
     34 H          -0.7777    1.0834    0.4619 H       1  UNL1        0.0644
     35 H           1.5255   -2.2288    1.4981 H       1  UNL1        0.0624
     36 H           3.9281   -1.8308    1.8697 H       1  UNL1        0.0624
     37 H           1.3799    1.0225   -1.3459 H       1  UNL1        0.0644
     38 H           3.9102    2.2434   -1.6328 H       1  UNL1        0.1673
     39 H           8.4654    2.3921   -0.3823 H       1  UNL1        0.0830
     40 H           8.6656    0.5447    1.2606 H       1  UNL1        0.0633
     41 H           6.6345   -0.8169    1.8171 H       1  UNL1        0.0625
     42 H           0.1012   -2.9412   -0.8074 H       1  UNL1        0.0624
     43 H          -2.3070   -3.3685   -1.1294 H       1  UNL1        0.0625
@<TRIPOS>BOND
     1     1     2    2
     2     2     3   ar
     3     3     4   ar
     4     4     5   ar
     5     5     6   ar
     6     6     7   ar
     7     7     8   ar
     8     8     9   ar
     9     9    10   ar
    10    10    11   ar
    11    11    12   ar
    12    12    13    1
    13    13    14   ar
    14    14    15   ar
    15    15    16   ar
    16    16    17   ar
    17    17    18   ar
    18    17    19   ar
    19    19    20   ar
    20    20    21   ar
    21    21    22   ar
    22    22    23   ar
    23    23    24   ar
    24    24    25   ar
    25    12    26   ar
    26    26    27   ar
    27    27    28   ar
    28    28     2   ar
    29     8     3   ar
    30    28    10   ar
    31    18    13   ar
    32    25    20   ar
    33    25    16   ar
    34     4    29    1
    35     5    30    1
    36     6    31    1
    37     7    32    1
    38     9    33    1
    39    11    34    1
    40    14    35    1
    41    15    36    1
    42    18    37    1
    43    19    38    1
    44    22    39    1
    45    23    40    1
    46    24    41    1
    47    26    42    1
    48    27    43    1
