@<TRIPOS>MOLECULE
*****
 43 48 0 0 0
SMALL
GASTEIGER

@<TRIPOS>ATOM
      1 O          -4.8867   -2.4024    1.4701 O.2     1  UNL1       -0.2865
      2 C          -4.4868   -1.4733    0.7756 C.ar    1  UNL1        0.1971
      3 C          -5.4368   -0.6650   -0.0297 C.ar    1  UNL1        0.0456
      4 C          -6.8062   -0.9489    0.0007 C.ar    1  UNL1       -0.0489
      5 C          -7.6854   -0.1855   -0.7659 C.ar    1  UNL1       -0.0610
      6 C          -7.1959    0.8504   -1.5621 C.ar    1  UNL1       -0.0598
      7 C          -5.8265    1.1317   -1.5908 C.ar    1  UNL1       -0.0377
      8 C          -4.9355    0.3889   -0.8103 C.ar    1  UNL1        0.0506
      9 N          -3.5539    0.6297   -0.8717 N.ar    1  UNL1       -0.3539
     10 C          -2.6261   -0.0601   -0.0748 C.ar    1  UNL1        0.0511
     11 C          -1.2613    0.2463   -0.1382 C.ar    1  UNL1       -0.0299
     12 C          -0.3132   -0.4743    0.6132 C.ar    1  UNL1       -0.0159
     13 C           1.1177   -0.1360    0.5445 C.ar    1  UNL1       -0.0167
     14 C           1.5650    1.1524    0.8453 C.ar    1  UNL1       -0.0534
     15 C           2.9247    1.4831    0.7825 C.ar    1  UNL1       -0.0524
     16 C           3.8899    0.5149    0.4083 C.ar    1  UNL1       -0.0031
     17 C           3.4342   -0.7679    0.1097 C.ar    1  UNL1        0.0211
     18 C           2.0651   -1.1048    0.1739 C.ar    1  UNL1       -0.0397
     19 S           4.7262   -1.8093   -0.3240 S.2     1  UNL1       -0.0882
     20 C           5.9086   -0.5837   -0.1214 C.ar    1  UNL1        0.0205
     21 C           7.2990   -0.7130   -0.3144 C.ar    1  UNL1       -0.0474
     22 C           8.1200    0.3960   -0.1026 C.ar    1  UNL1       -0.0607
     23 C           7.5752    1.6083    0.2922 C.ar    1  UNL1       -0.0611
     24 C           6.1954    1.7309    0.4819 C.ar    1  UNL1       -0.0529
     25 C           5.3314    0.6230    0.2753 C.ar    1  UNL1       -0.0031
     26 C          -0.7655   -1.5287    1.4247 C.ar    1  UNL1       -0.0532
     27 C          -2.1209   -1.8593    1.4833 C.ar    1  UNL1       -0.0484
     28 C          -3.0430   -1.1303    0.7294 C.ar    1  UNL1        0.0456
     29 H          -7.1837   -1.7629    0.6154 H       1  UNL1        0.0625
     30 H          -8.7505   -0.4036   -0.7475 H       1  UNL1        0.0618
     31 H          -7.8825    1.4372   -2.1681 H       1  UNL1        0.0618
     32 H          -5.4650    1.9326   -2.2300 H       1  UNL1        0.0638
     33 H          -3.2606    1.5193   -1.2545 H       1  UNL1        0.1659
     34 H          -0.9230    1.0475   -0.7920 H       1  UNL1        0.0644
     35 H           0.8562    1.9210    1.1491 H       1  UNL1        0.0624
     36 H           3.2374    2.4948    1.0284 H       1  UNL1        0.0624
     37 H           1.7491   -2.1153   -0.0761 H       1  UNL1        0.0635
     38 H           7.7280   -1.6622   -0.6234 H       1  UNL1        0.0629
     39 H           9.1938    0.3053   -0.2487 H       1  UNL1        0.0618
     40 H           8.2210    2.4676    0.4556 H       1  UNL1        0.0618
     41 H           5.7847    2.6884    0.7919 H       1  UNL1        0.0624
     42 H          -0.0594   -2.1010    2.0244 H       1  UNL1        0.0624
     43 H          -2.4541   -2.6817    2.1125 H       1  UNL1        0.0625
@<TRIPOS>BOND
     1     1     2    2
     2     2     3   ar
     3     3     4   ar
     4     4     5   ar
     5     5     6   ar
     6     6     7   ar
     7     7     8   ar
     8     8     9   ar
     9     9    10   ar
    10    10    11   ar
    11    11    12   ar
    12    12    13    1
    13    13    14   ar
    14    14    15   ar
    15    15    16   ar
    16    16    17   ar
    17    17    18   ar
    18    17    19   ar
    19    19    20   ar
    20    20    21   ar
    21    21    22   ar
    22    22    23   ar
    23    23    24   ar
    24    24    25   ar
    25    12    26   ar
    26    26    27   ar
    27    27    28   ar
    28    28     2   ar
    29     8     3   ar
    30    28    10   ar
    31    18    13   ar
    32    25    20   ar
    33    25    16   ar
    34     4    29    1
    35     5    30    1
    36     6    31    1
    37     7    32    1
    38     9    33    1
    39    11    34    1
    40    14    35    1
    41    15    36    1
    42    18    37    1
    43    21    38    1
    44    22    39    1
    45    23    40    1
    46    24    41    1
    47    26    42    1
    48    27    43    1
