@<TRIPOS>MOLECULE
*****
 38 42 0 0 0
SMALL
GASTEIGER

@<TRIPOS>ATOM
      1 O          -3.9788   -2.4421   -0.4995 O.2     1  UNL1       -0.2865
      2 C          -3.4786   -1.3378   -0.3103 C.ar    1  UNL1        0.1971
      3 C          -4.3328   -0.1539   -0.0407 C.ar    1  UNL1        0.0456
      4 C          -5.7242   -0.2859    0.0140 C.ar    1  UNL1       -0.0489
      5 C          -6.5136    0.8361    0.2619 C.ar    1  UNL1       -0.0610
      6 C          -5.9141    2.0824    0.4470 C.ar    1  UNL1       -0.0598
      7 C          -4.5228    2.2114    0.3913 C.ar    1  UNL1       -0.0377
      8 C          -3.7172    1.0911    0.1662 C.ar    1  UNL1        0.0506
      9 N          -2.3234    1.2197    0.0549 N.ar    1  UNL1       -0.3539
     10 C          -1.4714    0.1174   -0.1227 C.ar    1  UNL1        0.0511
     11 C          -0.0827    0.2892   -0.1807 C.ar    1  UNL1       -0.0299
     12 C           0.7825   -0.7976   -0.4143 C.ar    1  UNL1       -0.0158
     13 C           2.2412   -0.6039   -0.4629 C.ar    1  UNL1       -0.0157
     14 C           2.9971   -1.0559   -1.5501 C.ar    1  UNL1       -0.0519
     15 C           4.3811   -0.8626   -1.5848 C.ar    1  UNL1       -0.0337
     16 C           5.0460   -0.2212   -0.5505 C.ar    1  UNL1        0.0892
     17 N           6.3815   -0.0523   -0.6197 N.ar    1  UNL1       -0.2519
     18 C           6.9607    0.5793    0.4237 C.ar    1  UNL1        0.0464
     19 C           6.2337    1.0324    1.5048 C.ar    1  UNL1        0.0464
     20 N           4.8952    0.8742    1.5906 N.ar    1  UNL1       -0.2519
     21 C           4.2988    0.2435    0.5590 C.ar    1  UNL1        0.0897
     22 C           2.9225    0.0437    0.5809 C.ar    1  UNL1       -0.0265
     23 C           0.2161   -2.0698   -0.6058 C.ar    1  UNL1       -0.0532
     24 C          -1.1680   -2.2535   -0.5732 C.ar    1  UNL1       -0.0484
     25 C          -2.0049   -1.1604   -0.3406 C.ar    1  UNL1        0.0456
     26 H          -6.1892   -1.2570   -0.1396 H       1  UNL1        0.0625
     27 H          -7.5959    0.7394    0.3034 H       1  UNL1        0.0618
     28 H          -6.5326    2.9583    0.6289 H       1  UNL1        0.0618
     29 H          -4.0777    3.1940    0.5223 H       1  UNL1        0.0638
     30 H          -1.9114    2.0599    0.4407 H       1  UNL1        0.1659
     31 H           0.3353    1.2862   -0.0561 H       1  UNL1        0.0644
     32 H           2.5153   -1.5540   -2.3898 H       1  UNL1        0.0624
     33 H           4.9526   -1.2177   -2.4389 H       1  UNL1        0.0640
     34 H           8.0348    0.7112    0.3644 H       1  UNL1        0.0845
     35 H           6.7084    1.5381    2.3376 H       1  UNL1        0.0845
     36 H           2.3729    0.3977    1.4512 H       1  UNL1        0.0645
     37 H           0.8536   -2.9356   -0.7776 H       1  UNL1        0.0624
     38 H          -1.5897   -3.2440   -0.7290 H       1  UNL1        0.0625
@<TRIPOS>BOND
     1     1     2    2
     2     2     3   ar
     3     3     4   ar
     4     4     5   ar
     5     5     6   ar
     6     6     7   ar
     7     7     8   ar
     8     8     9   ar
     9     9    10   ar
    10    10    11   ar
    11    11    12   ar
    12    12    13    1
    13    13    14   ar
    14    14    15   ar
    15    15    16   ar
    16    16    17   ar
    17    17    18   ar
    18    18    19   ar
    19    19    20   ar
    20    20    21   ar
    21    21    22   ar
    22    12    23   ar
    23    23    24   ar
    24    24    25   ar
    25    25     2   ar
    26     8     3   ar
    27    25    10   ar
    28    22    13   ar
    29    21    16   ar
    30     4    26    1
    31     5    27    1
    32     6    28    1
    33     7    29    1
    34     9    30    1
    35    11    31    1
    36    14    32    1
    37    15    33    1
    38    18    34    1
    39    19    35    1
    40    22    36    1
    41    23    37    1
    42    24    38    1
