@<TRIPOS>MOLECULE
*****
 38 42 0 0 0
SMALL
GASTEIGER

@<TRIPOS>ATOM
      1 O          -3.6365   -0.8664    2.7982 O.2     1  UNL1       -0.2865
      2 C          -3.3338   -0.5398    1.6550 C.ar    1  UNL1        0.1971
      3 C          -4.3768   -0.3726    0.6120 C.ar    1  UNL1        0.0456
      4 C          -5.7248   -0.5790    0.9232 C.ar    1  UNL1       -0.0489
      5 C          -6.6924   -0.4245   -0.0685 C.ar    1  UNL1       -0.0610
      6 C          -6.3120   -0.0723   -1.3639 C.ar    1  UNL1       -0.0598
      7 C          -4.9636    0.1330   -1.6722 C.ar    1  UNL1       -0.0377
      8 C          -3.9843    0.0033   -0.6827 C.ar    1  UNL1        0.0506
      9 N          -2.6238    0.1568   -0.9941 N.ar    1  UNL1       -0.3539
     10 C          -1.6095    0.0785   -0.0265 C.ar    1  UNL1        0.0511
     11 C          -0.2686    0.2816   -0.3774 C.ar    1  UNL1       -0.0299
     12 C           0.7662    0.1518    0.5698 C.ar    1  UNL1       -0.0144
     13 C           2.1686    0.3780    0.1921 C.ar    1  UNL1        0.0023
     14 C           2.5805    1.5383   -0.4566 C.ar    1  UNL1        0.0361
     15 N           3.8538    1.7985   -0.8336 N.ar    1  UNL1       -0.2528
     16 C           4.7830    0.8648   -0.5501 C.ar    1  UNL1        0.0892
     17 C           6.1051    1.0759   -0.9087 C.ar    1  UNL1       -0.0328
     18 C           7.0840    0.1260   -0.6269 C.ar    1  UNL1       -0.0415
     19 C           6.6962   -1.0307    0.0196 C.ar    1  UNL1        0.0284
     20 N           5.4239   -1.2853    0.3899 N.ar    1  UNL1       -0.2534
     21 C           4.4934   -0.3495    0.1065 C.ar    1  UNL1        0.0897
     22 C           3.1703   -0.5633    0.4654 C.ar    1  UNL1       -0.0251
     23 C           0.4229   -0.2073    1.8849 C.ar    1  UNL1       -0.0532
     24 C          -0.9075   -0.4329    2.2453 C.ar    1  UNL1       -0.0484
     25 C          -1.9155   -0.2967    1.2890 C.ar    1  UNL1        0.0456
     26 H          -6.0175   -0.8622    1.9317 H       1  UNL1        0.0625
     27 H          -7.7415   -0.5859    0.1676 H       1  UNL1        0.0618
     28 H          -7.0676    0.0365   -2.1385 H       1  UNL1        0.0618
     29 H          -4.6883    0.3914   -2.6912 H       1  UNL1        0.0638
     30 H          -2.4050    0.6400   -1.8559 H       1  UNL1        0.1659
     31 H          -0.0229    0.5278   -1.4087 H       1  UNL1        0.0644
     32 H           1.8746    2.3309   -0.6947 H       1  UNL1        0.0836
     33 H           6.3748    1.9981   -1.4162 H       1  UNL1        0.0640
     34 H           8.1187    0.2892   -0.9061 H       1  UNL1        0.0633
     35 H           7.4160   -1.8065    0.2651 H       1  UNL1        0.0830
     36 H           2.9207   -1.4987    0.9621 H       1  UNL1        0.0646
     37 H           1.1937   -0.3113    2.6473 H       1  UNL1        0.0624
     38 H          -1.1545   -0.7154    3.2665 H       1  UNL1        0.0625
@<TRIPOS>BOND
     1     1     2    2
     2     2     3   ar
     3     3     4   ar
     4     4     5   ar
     5     5     6   ar
     6     6     7   ar
     7     7     8   ar
     8     8     9   ar
     9     9    10   ar
    10    10    11   ar
    11    11    12   ar
    12    12    13    1
    13    13    14   ar
    14    14    15   ar
    15    15    16   ar
    16    16    17   ar
    17    17    18   ar
    18    18    19   ar
    19    19    20   ar
    20    20    21   ar
    21    21    22   ar
    22    12    23   ar
    23    23    24   ar
    24    24    25   ar
    25    25     2   ar
    26     8     3   ar
    27    25    10   ar
    28    22    13   ar
    29    21    16   ar
    30     4    26    1
    31     5    27    1
    32     6    28    1
    33     7    29    1
    34     9    30    1
    35    11    31    1
    36    14    32    1
    37    17    33    1
    38    18    34    1
    39    19    35    1
    40    22    36    1
    41    23    37    1
    42    24    38    1
