@<TRIPOS>MOLECULE
*****
 38 42 0 0 0
SMALL
GASTEIGER

@<TRIPOS>ATOM
      1 O          -3.9078    2.6055   -0.6304 O.2     1  UNL1       -0.2865
      2 C          -3.4433    1.4979   -0.3800 C.ar    1  UNL1        0.1971
      3 C          -4.3343    0.3256   -0.1923 C.ar    1  UNL1        0.0456
      4 C          -5.7222    0.4728   -0.2847 C.ar    1  UNL1       -0.0489
      5 C          -6.5461   -0.6383   -0.1111 C.ar    1  UNL1       -0.0610
      6 C          -5.9835   -1.8890    0.1465 C.ar    1  UNL1       -0.0598
      7 C          -4.5957   -2.0332    0.2377 C.ar    1  UNL1       -0.0377
      8 C          -3.7581   -0.9236    0.0891 C.ar    1  UNL1        0.0506
      9 N          -2.3612   -1.0691    0.1227 N.ar    1  UNL1       -0.3539
     10 C          -1.4835    0.0234    0.0282 C.ar    1  UNL1        0.0511
     11 C          -0.0981   -0.1635    0.1149 C.ar    1  UNL1       -0.0299
     12 C           0.7980    0.9136   -0.0300 C.ar    1  UNL1       -0.0144
     13 C           2.2476    0.7053    0.0737 C.ar    1  UNL1        0.0010
     14 C           3.0389    1.4327    0.9548 C.ar    1  UNL1        0.0377
     15 N           4.3789    1.2878    1.0986 N.ar    1  UNL1       -0.2351
     16 C           5.0144    0.3873    0.3490 C.ar    1  UNL1        0.1597
     17 N           6.3337    0.2554    0.4997 N.ar    1  UNL1       -0.2357
     18 C           6.9921   -0.6506   -0.2555 C.ar    1  UNL1        0.0300
     19 C           6.3832   -1.4649   -1.1881 C.ar    1  UNL1       -0.0429
     20 C           5.0128   -1.3381   -1.3521 C.ar    1  UNL1       -0.0496
     21 C           4.3088   -0.4038   -0.5783 C.ar    1  UNL1        0.0198
     22 C           2.9197   -0.2360   -0.7066 C.ar    1  UNL1       -0.0419
     23 C           0.2696    2.1912   -0.2832 C.ar    1  UNL1       -0.0532
     24 C          -1.1082    2.3885   -0.3990 C.ar    1  UNL1       -0.0484
     25 C          -1.9769    1.3052   -0.2520 C.ar    1  UNL1        0.0456
     26 H          -6.1575    1.4473   -0.4943 H       1  UNL1        0.0625
     27 H          -7.6256   -0.5297   -0.1837 H       1  UNL1        0.0618
     28 H          -6.6279   -2.7564    0.2702 H       1  UNL1        0.0618
     29 H          -4.1784   -3.0194    0.4226 H       1  UNL1        0.0638
     30 H          -2.0058   -1.9031    0.5734 H       1  UNL1        0.1659
     31 H           0.2920   -1.1608    0.3082 H       1  UNL1        0.0644
     32 H           2.6043    2.1837    1.6114 H       1  UNL1        0.0836
     33 H           8.0633   -0.7014   -0.0800 H       1  UNL1        0.0830
     34 H           6.9598   -2.1753   -1.7693 H       1  UNL1        0.0633
     35 H           4.4993   -1.9620   -2.0787 H       1  UNL1        0.0625
     36 H           2.3675   -0.8333   -1.4291 H       1  UNL1        0.0631
     37 H           0.9309    3.0468   -0.4141 H       1  UNL1        0.0624
     38 H          -1.5004    3.3814   -0.6090 H       1  UNL1        0.0625
@<TRIPOS>BOND
     1     1     2    2
     2     2     3   ar
     3     3     4   ar
     4     4     5   ar
     5     5     6   ar
     6     6     7   ar
     7     7     8   ar
     8     8     9   ar
     9     9    10   ar
    10    10    11   ar
    11    11    12   ar
    12    12    13    1
    13    13    14   ar
    14    14    15   ar
    15    15    16   ar
    16    16    17   ar
    17    17    18   ar
    18    18    19   ar
    19    19    20   ar
    20    20    21   ar
    21    21    22   ar
    22    12    23   ar
    23    23    24   ar
    24    24    25   ar
    25    25     2   ar
    26     8     3   ar
    27    25    10   ar
    28    22    13   ar
    29    21    16   ar
    30     4    26    1
    31     5    27    1
    32     6    28    1
    33     7    29    1
    34     9    30    1
    35    11    31    1
    36    14    32    1
    37    18    33    1
    38    19    34    1
    39    20    35    1
    40    22    36    1
    41    23    37    1
    42    24    38    1
