@<TRIPOS>MOLECULE
*****
 36 40 0 0 0
SMALL
GASTEIGER

@<TRIPOS>ATOM
      1 O          -3.3084    1.8771    2.0541 O.2     1  UNL1       -0.2865
      2 C          -3.0244    1.2142    1.0618 C.ar    1  UNL1        0.1971
      3 C          -4.0743    0.8114    0.0932 C.ar    1  UNL1        0.0456
      4 C          -5.4048    1.1922    0.2962 C.ar    1  UNL1       -0.0489
      5 C          -6.3808    0.8014   -0.6193 C.ar    1  UNL1       -0.0610
      6 C          -6.0277    0.0291   -1.7265 C.ar    1  UNL1       -0.0598
      7 C          -4.6968   -0.3504   -1.9266 C.ar    1  UNL1       -0.0377
      8 C          -3.7036    0.0538   -1.0292 C.ar    1  UNL1        0.0506
      9 N          -2.3735   -0.3689   -1.1924 N.ar    1  UNL1       -0.3539
     10 C          -1.3351    0.0485   -0.3422 C.ar    1  UNL1        0.0512
     11 C          -0.0131   -0.3679   -0.5722 C.ar    1  UNL1       -0.0284
     12 C           1.0456   -0.0128    0.2925 C.ar    1  UNL1        0.0039
     13 C           2.4526   -0.4307    0.0634 C.ar    1  UNL1        0.0916
     14 C           2.8914   -1.1881   -1.0144 C.ar    1  UNL1        0.0561
     15 N           4.1824   -1.5545   -1.2000 N.ar    1  UNL1       -0.2310
     16 C           5.0622   -1.1512   -0.2787 C.ar    1  UNL1        0.1977
     17 N           6.3475   -1.4982   -0.4343 N.ar    1  UNL1       -0.2316
     18 C           7.2114   -1.0767    0.5111 C.ar    1  UNL1        0.0482
     19 C           6.8037   -0.3243    1.5898 C.ar    1  UNL1        0.0482
     20 N           5.5162    0.0359    1.7651 N.ar    1  UNL1       -0.2316
     21 C           4.6387   -0.3722    0.8378 C.ar    1  UNL1        0.1983
     22 N           3.3539   -0.0257    0.9922 N.ar    1  UNL1       -0.2232
     23 C           0.7097    0.7709    1.4180 C.ar    1  UNL1       -0.0517
     24 C          -0.6040    1.1737    1.6767 C.ar    1  UNL1       -0.0483
     25 C          -1.6218    0.8041    0.8010 C.ar    1  UNL1        0.0456
     26 H          -5.6784    1.7866    1.1650 H       1  UNL1        0.0625
     27 H          -7.4169    1.0930   -0.4649 H       1  UNL1        0.0618
     28 H          -6.7930   -0.2844   -2.4328 H       1  UNL1        0.0618
     29 H          -4.4474   -0.9659   -2.7867 H       1  UNL1        0.0638
     30 H          -2.1143   -0.6854   -2.1181 H       1  UNL1        0.1659
     31 H           0.1699   -0.9850   -1.4468 H       1  UNL1        0.0645
     32 H           2.2255   -1.5426   -1.7919 H       1  UNL1        0.0852
     33 H           8.2478   -1.3644    0.3735 H       1  UNL1        0.0846
     34 H           7.5015    0.0131    2.3483 H       1  UNL1        0.0846
     35 H           1.4835    1.0759    2.1240 H       1  UNL1        0.0624
     36 H          -0.8253    1.7687    2.5602 H       1  UNL1        0.0625
@<TRIPOS>BOND
     1     1     2    2
     2     2     3   ar
     3     3     4   ar
     4     4     5   ar
     5     5     6   ar
     6     6     7   ar
     7     7     8   ar
     8     8     9   ar
     9     9    10   ar
    10    10    11   ar
    11    11    12   ar
    12    12    13    1
    13    13    14   ar
    14    14    15   ar
    15    15    16   ar
    16    16    17   ar
    17    17    18   ar
    18    18    19   ar
    19    19    20   ar
    20    20    21   ar
    21    21    22   ar
    22    12    23   ar
    23    23    24   ar
    24    24    25   ar
    25    25     2   ar
    26     8     3   ar
    27    25    10   ar
    28    22    13   ar
    29    21    16   ar
    30     4    26    1
    31     5    27    1
    32     6    28    1
    33     7    29    1
    34     9    30    1
    35    11    31    1
    36    14    32    1
    37    18    33    1
    38    19    34    1
    39    23    35    1
    40    24    36    1
