@<TRIPOS>MOLECULE
*****
 30 33 0 0 0
SMALL
GASTEIGER

@<TRIPOS>ATOM
      1 O           1.8363   -2.6933    0.7838 O.2     1  UNL1       -0.2865
      2 C           1.5797   -1.5429    0.4437 C.ar    1  UNL1        0.1971
      3 C           2.6668   -0.5852    0.1213 C.ar    1  UNL1        0.0456
      4 C           4.0047   -0.9872    0.1922 C.ar    1  UNL1       -0.0489
      5 C           5.0150   -0.0749   -0.1084 C.ar    1  UNL1       -0.0610
      6 C           4.6879    1.2322   -0.4709 C.ar    1  UNL1       -0.0598
      7 C           3.3495    1.6313   -0.5404 C.ar    1  UNL1       -0.0377
      8 C           2.3249    0.7210   -0.2641 C.ar    1  UNL1        0.0506
      9 N           0.9803    1.1276   -0.2779 N.ar    1  UNL1       -0.3539
     10 C          -0.0836    0.2389   -0.0513 C.ar    1  UNL1        0.0511
     11 C          -1.4111    0.6811   -0.1193 C.ar    1  UNL1       -0.0298
     12 C          -2.4787   -0.1905    0.1586 C.ar    1  UNL1       -0.0113
     13 C          -3.8555    0.2594    0.0723 C.ar    1  UNL1        0.0408
     14 C          -5.0454   -0.4346   -0.2456 C.ar    1  UNL1        0.0777
     15 N          -6.1225    0.3534   -0.2014 N.ar    1  UNL1       -0.0862
     16 O          -5.6444    1.6010    0.1634 O.2     1  UNL1       -0.3623
     17 C          -4.2990    1.5362    0.3272 C.ar    1  UNL1        0.1319
     18 C          -2.1982   -1.5165    0.5198 C.ar    1  UNL1       -0.0531
     19 C          -0.8780   -1.9624    0.6160 C.ar    1  UNL1       -0.0484
     20 C           0.1718   -1.0835    0.3394 C.ar    1  UNL1        0.0456
     21 H           4.2571   -2.0042    0.4836 H       1  UNL1        0.0625
     22 H           6.0568   -0.3815   -0.0528 H       1  UNL1        0.0618
     23 H           5.4784    1.9452   -0.6936 H       1  UNL1        0.0618
     24 H           3.1184    2.6586   -0.8090 H       1  UNL1        0.0638
     25 H           0.7708    1.9766   -0.7879 H       1  UNL1        0.1659
     26 H          -1.6078    1.7118   -0.4034 H       1  UNL1        0.0644
     27 H          -5.1767   -1.4736   -0.5132 H       1  UNL1        0.0870
     28 H          -3.8293    2.4611    0.6272 H       1  UNL1        0.1064
     29 H          -2.9982   -2.2165    0.7521 H       1  UNL1        0.0624
     30 H          -0.6698   -2.9888    0.9111 H       1  UNL1        0.0625
@<TRIPOS>BOND
     1     1     2    2
     2     2     3   ar
     3     3     4   ar
     4     4     5   ar
     5     5     6   ar
     6     6     7   ar
     7     7     8   ar
     8     8     9   ar
     9     9    10   ar
    10    10    11   ar
    11    11    12   ar
    12    12    13    1
    13    13    14   ar
    14    14    15   ar
    15    15    16   ar
    16    16    17   ar
    17    12    18   ar
    18    18    19   ar
    19    19    20   ar
    20    20     2   ar
    21     8     3   ar
    22    20    10   ar
    23    17    13   ar
    24     4    21    1
    25     5    22    1
    26     6    23    1
    27     7    24    1
    28     9    25    1
    29    11    26    1
    30    14    27    1
    31    17    28    1
    32    18    29    1
    33    19    30    1
