@<TRIPOS>MOLECULE
*****
 30 33 0 0 0
SMALL
GASTEIGER

@<TRIPOS>ATOM
      1 O          -1.9922   -2.5190   -0.9756 O.2     1  UNL1       -0.2865
      2 C          -1.6939   -1.4294   -0.4969 C.ar    1  UNL1        0.1971
      3 C          -2.7479   -0.4759   -0.0691 C.ar    1  UNL1        0.0456
      4 C          -4.0990   -0.8158   -0.1942 C.ar    1  UNL1       -0.0489
      5 C          -5.0782    0.0919    0.2067 C.ar    1  UNL1       -0.0610
      6 C          -4.7069    1.3337    0.7230 C.ar    1  UNL1       -0.0598
      7 C          -3.3555    1.6710    0.8465 C.ar    1  UNL1       -0.0377
      8 C          -2.3622    0.7616    0.4703 C.ar    1  UNL1        0.0506
      9 N          -1.0040    1.1140    0.5381 N.ar    1  UNL1       -0.3539
     10 C           0.0292    0.2169    0.2171 C.ar    1  UNL1        0.0512
     11 C           1.3714    0.5996    0.3462 C.ar    1  UNL1       -0.0285
     12 C           2.4100   -0.2716   -0.0252 C.ar    1  UNL1        0.0028
     13 C           3.8175    0.0972    0.1105 C.ar    1  UNL1        0.0782
     14 C           4.2910    1.3964    0.1455 C.ar    1  UNL1        0.0031
     15 S           6.0006    1.4021    0.3071 S.2     1  UNL1       -0.0833
     16 C           5.9836   -0.3105    0.3031 C.ar    1  UNL1        0.0654
     17 N           4.8034   -0.8773    0.1915 N.ar    1  UNL1       -0.2474
     18 C           2.0812   -1.5377   -0.5349 C.ar    1  UNL1       -0.0517
     19 C           0.7482   -1.9217   -0.6940 C.ar    1  UNL1       -0.0483
     20 C          -0.2710   -1.0405   -0.3280 C.ar    1  UNL1        0.0456
     21 H          -4.3855   -1.7812   -0.6054 H       1  UNL1        0.0625
     22 H          -6.1298   -0.1669    0.1096 H       1  UNL1        0.0618
     23 H          -5.4728    2.0448    1.0242 H       1  UNL1        0.0618
     24 H          -3.0892    2.6501    1.2355 H       1  UNL1        0.0638
     25 H          -0.7686    1.8815    1.1546 H       1  UNL1        0.1659
     26 H           1.5985    1.5812    0.7516 H       1  UNL1        0.0645
     27 H           3.7481    2.3272    0.0770 H       1  UNL1        0.0715
     28 H           6.8957   -0.8871    0.3861 H       1  UNL1        0.0907
     29 H           2.8686   -2.2336   -0.8219 H       1  UNL1        0.0624
     30 H           0.5096   -2.9011   -1.1023 H       1  UNL1        0.0625
@<TRIPOS>BOND
     1     1     2    2
     2     2     3   ar
     3     3     4   ar
     4     4     5   ar
     5     5     6   ar
     6     6     7   ar
     7     7     8   ar
     8     8     9   ar
     9     9    10   ar
    10    10    11   ar
    11    11    12   ar
    12    12    13    1
    13    13    14   ar
    14    14    15   ar
    15    15    16   ar
    16    16    17   ar
    17    12    18   ar
    18    18    19   ar
    19    19    20   ar
    20    20     2   ar
    21     8     3   ar
    22    20    10   ar
    23    17    13   ar
    24     4    21    1
    25     5    22    1
    26     6    23    1
    27     7    24    1
    28     9    25    1
    29    11    26    1
    30    14    27    1
    31    16    28    1
    32    18    29    1
    33    19    30    1
