@<TRIPOS>MOLECULE
*****
 36 40 0 0 0
SMALL
GASTEIGER

@<TRIPOS>ATOM
      1 O           3.5652   -2.6656    0.4399 O.2     1  UNL1       -0.2865
      2 C           3.2016   -1.5166    0.2101 C.ar    1  UNL1        0.1971
      3 C           4.1948   -0.4326    0.0030 C.ar    1  UNL1        0.0456
      4 C           5.5644   -0.7112    0.0574 C.ar    1  UNL1       -0.0489
      5 C           6.4851    0.3182   -0.1329 C.ar    1  UNL1       -0.0610
      6 C           6.0371    1.6183   -0.3694 C.ar    1  UNL1       -0.0598
      7 C           4.6672    1.8940   -0.4227 C.ar    1  UNL1       -0.0377
      8 C           3.7325    0.8678   -0.2558 C.ar    1  UNL1        0.0506
      9 N           2.3560    1.1432   -0.2555 N.ar    1  UNL1       -0.3539
     10 C           1.3805    0.1406   -0.1370 C.ar    1  UNL1        0.0513
     11 C           0.0188    0.4584   -0.1892 C.ar    1  UNL1       -0.0254
     12 C          -0.9673   -0.5304   -0.0193 C.ar    1  UNL1        0.0389
     13 C          -2.3775   -0.1540   -0.0948 C.ar    1  UNL1        0.2285
     14 N          -2.9042    1.0376   -0.3209 N.ar    1  UNL1       -0.2090
     15 C          -4.2563    0.8089   -0.2827 C.ar    1  UNL1        0.1099
     16 C          -5.3438    1.6757   -0.4490 C.ar    1  UNL1       -0.0326
     17 C          -6.6374    1.1394   -0.3532 C.ar    1  UNL1       -0.0595
     18 C          -6.8397   -0.2235   -0.0986 C.ar    1  UNL1       -0.0582
     19 C          -5.7622   -1.1020    0.0699 C.ar    1  UNL1       -0.0171
     20 C          -4.4997   -0.5312   -0.0324 C.ar    1  UNL1        0.1557
     21 O          -3.2953   -1.1585    0.0895 O.2     1  UNL1       -0.4353
     22 C          -0.5631   -1.8528    0.2224 C.ar    1  UNL1       -0.0487
     23 C           0.7928   -2.1810    0.2988 C.ar    1  UNL1       -0.0482
     24 C           1.7568   -1.1844    0.1266 C.ar    1  UNL1        0.0456
     25 H           5.9106   -1.7240    0.2507 H       1  UNL1        0.0625
     26 H           7.5509    0.1075   -0.0896 H       1  UNL1        0.0618
     27 H           6.7571    2.4219   -0.5064 H       1  UNL1        0.0618
     28 H           4.3401    2.9162   -0.5925 H       1  UNL1        0.0638
     29 H           2.0642    2.0220   -0.6651 H       1  UNL1        0.1659
     30 H          -0.2882    1.4888   -0.3620 H       1  UNL1        0.0646
     31 H          -5.1839    2.7298   -0.6458 H       1  UNL1        0.0640
     32 H          -7.4968    1.7953   -0.4790 H       1  UNL1        0.0618
     33 H          -7.8559   -0.6086   -0.0300 H       1  UNL1        0.0619
     34 H          -5.8985   -2.1576    0.2674 H       1  UNL1        0.0655
     35 H          -1.3003   -2.6419    0.3599 H       1  UNL1        0.0625
     36 H           1.0944   -3.2078    0.4948 H       1  UNL1        0.0625
@<TRIPOS>BOND
     1     1     2    2
     2     2     3   ar
     3     3     4   ar
     4     4     5   ar
     5     5     6   ar
     6     6     7   ar
     7     7     8   ar
     8     8     9   ar
     9     9    10   ar
    10    10    11   ar
    11    11    12   ar
    12    12    13    1
    13    13    14   ar
    14    14    15   ar
    15    15    16   ar
    16    16    17   ar
    17    17    18   ar
    18    18    19   ar
    19    19    20   ar
    20    20    21   ar
    21    12    22   ar
    22    22    23   ar
    23    23    24   ar
    24    24     2   ar
    25     8     3   ar
    26    24    10   ar
    27    21    13   ar
    28    20    15   ar
    29     4    25    1
    30     5    26    1
    31     6    27    1
    32     7    28    1
    33     9    29    1
    34    11    30    1
    35    16    31    1
    36    17    32    1
    37    18    33    1
    38    19    34    1
    39    22    35    1
    40    23    36    1
