@<TRIPOS>MOLECULE
*****
 39 44 0 0 0
SMALL
GASTEIGER

@<TRIPOS>ATOM
      1 SI          5.9407   -0.1887   -1.5455 Si      1  UNL1        0.0000
      2 C           6.9047    0.2568    0.0477 C.2     1  UNL1        0.0000
      3 C           6.0791    0.4880    1.0911 C.2     1  UNL1        0.0000
      4 C           4.7117    0.3382    0.7264 C.ar    1  UNL1        0.0000
      5 S           3.3467    0.5274    1.6919 S.2     1  UNL1        0.0000
      6 C           2.2529    0.1476    0.3803 C.ar    1  UNL1        0.0000
      7 C           2.9726   -0.1231   -0.8026 C.ar    1  UNL1        0.0000
      8 C           2.2577   -0.4476   -1.9614 C.ar    1  UNL1        0.0000
      9 N           0.9084   -0.5065   -1.9734 N.ar    1  UNL1        0.0000
     10 C           0.2049   -0.2539   -0.8683 C.ar    1  UNL1        0.0000
     11 C          -1.2083   -0.3394   -0.9804 C.ar    1  UNL1        0.0000
     12 C          -2.1546   -0.1096    0.0561 C.ar    1  UNL1        0.0000
     13 C          -3.5988   -0.2066   -0.1162 C.ar    1  UNL1        0.0000
     14 C          -4.4325    0.9040    0.0910 C.ar    1  UNL1        0.0000
     15 C          -5.8151    0.8094   -0.0879 C.ar    1  UNL1        0.0000
     16 C          -6.3856   -0.3986   -0.4813 C.ar    1  UNL1        0.0000
     17 C          -5.5750   -1.5102   -0.6980 C.ar    1  UNL1        0.0000
     18 C          -4.1924   -1.4133   -0.5193 C.ar    1  UNL1        0.0000
     19 C          -1.4971    0.2132    1.2463 C.ar    1  UNL1        0.0000
     20 C          -2.0774    0.4631    2.4662 C.ar    1  UNL1        0.0000
     21 N          -1.0622    0.7253    3.3538 N.ar    1  UNL1        0.0000
     22 C           0.1584    0.6334    2.7188 C.ar    1  UNL1        0.0000
     23 C          -0.0725    0.3075    1.4027 C.ar    1  UNL1        0.0000
     24 C           0.8463    0.0847    0.3613 C.ar    1  UNL1        0.0000
     25 C           4.3516   -0.0024   -0.5533 C.ar    1  UNL1        0.0000
     26 H           6.1230    0.8486   -2.5901 H       1  UNL1        0.0000
     27 H           6.2240   -1.5809   -1.9719 H       1  UNL1        0.0000
     28 H           7.9822    0.3005    0.0427 H       1  UNL1        0.0000
     29 H           6.4038    0.7554    2.0888 H       1  UNL1        0.0000
     30 H           2.7410   -0.6680   -2.9074 H       1  UNL1        0.0000
     31 H          -1.5989   -0.5978   -1.9673 H       1  UNL1        0.0000
     32 H          -4.0022    1.8585    0.3879 H       1  UNL1        0.0000
     33 H          -6.4434    1.6807    0.0763 H       1  UNL1        0.0000
     34 H          -7.4606   -0.4731   -0.6219 H       1  UNL1        0.0000
     35 H          -6.0162   -2.4542   -1.0067 H       1  UNL1        0.0000
     36 H          -3.5755   -2.2935   -0.6896 H       1  UNL1        0.0000
     37 H          -3.1091    0.4750    2.7917 H       1  UNL1        0.0000
     38 H          -1.1893    0.9438    4.3336 H       1  UNL1        0.0000
     39 H           1.0574    0.8062    3.2907 H       1  UNL1        0.0000
@<TRIPOS>BOND
     1     1     2    1
     2     2     3    2
     3     3     4    1
     4     4     5   ar
     5     5     6   ar
     6     6     7   ar
     7     7     8   ar
     8     8     9   ar
     9     9    10   ar
    10    10    11   ar
    11    11    12   ar
    12    12    13    1
    13    13    14   ar
    14    14    15   ar
    15    15    16   ar
    16    16    17   ar
    17    17    18   ar
    18    12    19   ar
    19    19    20   ar
    20    20    21   ar
    21    21    22   ar
    22    22    23   ar
    23    23    24   ar
    24     7    25   ar
    25    25     1    1
    26    25     4   ar
    27    24     6   ar
    28    24    10   ar
    29    18    13   ar
    30    23    19   ar
    31     1    26    1
    32     1    27    1
    33     2    28    1
    34     3    29    1
    35     8    30    1
    36    11    31    1
    37    14    32    1
    38    15    33    1
    39    16    34    1
    40    17    35    1
    41    18    36    1
    42    20    37    1
    43    21    38    1
    44    22    39    1
