@<TRIPOS>MOLECULE
*****
 29 32 0 0 0
SMALL
GASTEIGER

@<TRIPOS>ATOM
      1 O          -1.5799    2.8485    0.1666 O.2     1  UNL1       -0.2865
      2 C          -1.3977    1.6381    0.0822 C.ar    1  UNL1        0.1971
      3 C          -2.5465    0.6986    0.0424 C.ar    1  UNL1        0.0456
      4 C          -3.8572    1.1848    0.0906 C.ar    1  UNL1       -0.0489
      5 C          -4.9257    0.2901    0.0585 C.ar    1  UNL1       -0.0610
      6 C          -4.6832   -1.0820   -0.0147 C.ar    1  UNL1       -0.0598
      7 C          -3.3719   -1.5653   -0.0622 C.ar    1  UNL1       -0.0377
      8 C          -2.2908   -0.6787   -0.0533 C.ar    1  UNL1        0.0506
      9 N          -0.9706   -1.1563   -0.0476 N.ar    1  UNL1       -0.3539
     10 C           0.1458   -0.3052   -0.0844 C.ar    1  UNL1        0.0512
     11 C           1.4429   -0.8305   -0.1242 C.ar    1  UNL1       -0.0269
     12 C           2.5665    0.0152   -0.1077 C.ar    1  UNL1        0.0244
     13 C           3.9184   -0.5336   -0.1616 C.ar    1  UNL1        0.2019
     14 N           5.0412    0.2681   -0.1353 N.ar    1  UNL1       -0.1942
     15 C           6.0106   -0.6078   -0.2015 C.ar    1  UNL1        0.2147
     16 O           5.5866   -1.8930   -0.2685 O.2     1  UNL1       -0.3411
     17 N           4.1934   -1.8477   -0.2429 N.ar    1  UNL1       -0.0564
     18 C           2.3719    1.4033   -0.0336 C.ar    1  UNL1       -0.0501
     19 C           1.0835    1.9390    0.0288 C.ar    1  UNL1       -0.0483
     20 C          -0.0218    1.0845    0.0108 C.ar    1  UNL1        0.0456
     21 H          -4.0430    2.2544    0.1565 H       1  UNL1        0.0625
     22 H          -5.9465    0.6627    0.0978 H       1  UNL1        0.0618
     23 H          -5.5182   -1.7788   -0.0281 H       1  UNL1        0.0618
     24 H          -3.2054   -2.6384   -0.1031 H       1  UNL1        0.0638
     25 H          -0.8296   -2.1133   -0.3467 H       1  UNL1        0.1659
     26 H           1.5802   -1.9091   -0.1657 H       1  UNL1        0.0645
     27 H           7.0773   -0.4432   -0.2096 H       1  UNL1        0.1283
     28 H           3.2252    2.0799   -0.0177 H       1  UNL1        0.0625
     29 H           0.9443    3.0159    0.0945 H       1  UNL1        0.0625
@<TRIPOS>BOND
     1     1     2    2
     2     2     3   ar
     3     3     4   ar
     4     4     5   ar
     5     5     6   ar
     6     6     7   ar
     7     7     8   ar
     8     8     9   ar
     9     9    10   ar
    10    10    11   ar
    11    11    12   ar
    12    12    13    1
    13    13    14   ar
    14    14    15   ar
    15    15    16   ar
    16    16    17   ar
    17    12    18   ar
    18    18    19   ar
    19    19    20   ar
    20    20     2   ar
    21     8     3   ar
    22    20    10   ar
    23    17    13   ar
    24     4    21    1
    25     5    22    1
    26     6    23    1
    27     7    24    1
    28     9    25    1
    29    11    26    1
    30    15    27    1
    31    18    28    1
    32    19    29    1
