@<TRIPOS>MOLECULE
*****
 36 38 0 0 0
SMALL
GASTEIGER

@<TRIPOS>ATOM
      1 O           1.8710    2.4973    0.5789 O.2     1  UNL1       -0.2695
      2 C           1.9662    1.3632    0.1496 C.2     1  UNL1        0.2538
      3 C           2.7963    0.3254    0.7568 C.ar    1  UNL1        0.0494
      4 C           3.5799    0.3557    1.8937 C.ar    1  UNL1       -0.0489
      5 C           4.2755   -0.8128    2.2211 C.ar    1  UNL1       -0.0610
      6 C           4.1740   -1.9654    1.4139 C.ar    1  UNL1       -0.0610
      7 C           3.3754   -1.9690    0.2657 C.ar    1  UNL1       -0.0489
      8 C           2.6967   -0.8040   -0.0342 C.ar    1  UNL1        0.0494
      9 C           1.8040   -0.4869   -1.1469 C.2     1  UNL1        0.2538
     10 O           1.5486   -1.2591   -2.0515 O.2     1  UNL1       -0.2695
     11 N           1.3809    0.8000   -0.9523 N.am    1  UNL1       -0.2338
     12 C           0.4890    1.5148   -1.8498 C.3     1  UNL1        0.0266
     13 C          -0.8464    1.9075   -1.1945 C.3     1  UNL1       -0.0154
     14 C          -1.7952    0.8044   -0.7575 C.2     1  UNL1       -0.0720
     15 C          -1.7614   -0.4645   -1.2062 C.2     1  UNL1       -0.0847
     16 C          -2.6842   -1.5512   -0.7325 C.3     1  UNL1       -0.0345
     17 C          -3.4613   -1.1774    0.5280 C.3     1  UNL1       -0.0493
     18 C          -3.9846    0.2497    0.4383 C.3     1  UNL1       -0.0491
     19 C          -2.8383    1.2459    0.2498 C.3     1  UNL1       -0.0317
     20 H           3.6501    1.2504    2.5037 H       1  UNL1        0.0625
     21 H           4.9048   -0.8346    3.1092 H       1  UNL1        0.0618
     22 H           4.7264   -2.8623    1.6892 H       1  UNL1        0.0618
     23 H           3.2897   -2.8471   -0.3661 H       1  UNL1        0.0625
     24 H           0.3227    0.9253   -2.7578 H       1  UNL1        0.0473
     25 H           1.0073    2.4344   -2.1476 H       1  UNL1        0.0473
     26 H          -1.3927    2.5524   -1.8950 H       1  UNL1        0.0325
     27 H          -0.6249    2.5288   -0.3174 H       1  UNL1        0.0325
     28 H          -1.0446   -0.7743   -1.9623 H       1  UNL1        0.0572
     29 H          -2.1036   -2.4601   -0.5369 H       1  UNL1        0.0307
     30 H          -3.3840   -1.7859   -1.5434 H       1  UNL1        0.0307
     31 H          -2.8090   -1.2723    1.4055 H       1  UNL1        0.0268
     32 H          -4.2922   -1.8772    0.6718 H       1  UNL1        0.0268
     33 H          -4.6837    0.3299   -0.4039 H       1  UNL1        0.0268
     34 H          -4.5475    0.5029    1.3439 H       1  UNL1        0.0268
     35 H          -3.2661    2.2080   -0.0571 H       1  UNL1        0.0310
     36 H          -2.3386    1.4081    1.2132 H       1  UNL1        0.0310
@<TRIPOS>BOND
     1     1     2    2
     2     2     3    1
     3     3     4   ar
     4     4     5   ar
     5     5     6   ar
     6     6     7   ar
     7     7     8   ar
     8     8     9    1
     9     9    10    2
    10     9    11   am
    11    11    12    1
    12    12    13    1
    13    13    14    1
    14    14    15    2
    15    15    16    1
    16    16    17    1
    17    17    18    1
    18    18    19    1
    19    11     2   am
    20    19    14    1
    21     8     3   ar
    22     4    20    1
    23     5    21    1
    24     6    22    1
    25     7    23    1
    26    12    24    1
    27    12    25    1
    28    13    26    1
    29    13    27    1
    30    15    28    1
    31    16    29    1
    32    16    30    1
    33    17    31    1
    34    17    32    1
    35    18    33    1
    36    18    34    1
    37    19    35    1
    38    19    36    1
