@<TRIPOS>MOLECULE
*****
 31 33 0 0 0
SMALL
GASTEIGER

@<TRIPOS>ATOM
      1 O           1.3696    0.7128    2.4339 O.2     1  UNL1       -0.2695
      2 C           1.6458    0.4386    1.2818 C.2     1  UNL1        0.2551
      3 C           2.9907    0.0858    0.8297 C.ar    1  UNL1        0.0495
      4 C           4.1601   -0.0869    1.5438 C.ar    1  UNL1       -0.0489
      5 C           5.3100   -0.4113    0.8167 C.ar    1  UNL1       -0.0610
      6 C           5.2643   -0.5486   -0.5868 C.ar    1  UNL1       -0.0610
      7 C           4.0681   -0.3636   -1.2874 C.ar    1  UNL1       -0.0489
      8 C           2.9466   -0.0475   -0.5461 C.ar    1  UNL1        0.0495
      9 C           1.5725    0.2140   -0.9679 C.2     1  UNL1        0.2551
     10 O           1.1992    0.2200   -2.1258 O.2     1  UNL1       -0.2695
     11 N           0.8523    0.4406    0.1698 N.am    1  UNL1       -0.2177
     12 C          -0.5341    0.8191    0.1827 C.3     1  UNL1        0.0863
     13 N          -1.3038   -0.3059   -0.3210 N.pl3   1  UNL1       -0.3278
     14 C          -2.6943   -0.1607   -0.4396 C.ar    1  UNL1        0.0283
     15 C          -3.3723   -0.9701   -1.3641 C.ar    1  UNL1       -0.0408
     16 C          -4.7638   -0.9255   -1.4898 C.ar    1  UNL1       -0.0600
     17 C          -5.5087   -0.0888   -0.6660 C.ar    1  UNL1       -0.0616
     18 C          -4.8609    0.6871    0.2903 C.ar    1  UNL1       -0.0600
     19 C          -3.4671    0.6384    0.4115 C.ar    1  UNL1       -0.0408
     20 H           4.1815    0.0256    2.6230 H       1  UNL1        0.0625
     21 H           6.2541   -0.5587    1.3387 H       1  UNL1        0.0618
     22 H           6.1739   -0.8005   -1.1297 H       1  UNL1        0.0618
     23 H           4.0194   -0.4631   -2.3669 H       1  UNL1        0.0625
     24 H          -0.6567    1.6896   -0.4723 H       1  UNL1        0.0676
     25 H          -0.8228    1.0838    1.2043 H       1  UNL1        0.0676
     26 H          -0.9070   -0.6225   -1.2060 H       1  UNL1        0.1476
     27 H          -2.8142   -1.6491   -2.0047 H       1  UNL1        0.0636
     28 H          -5.2616   -1.5527   -2.2243 H       1  UNL1        0.0618
     29 H          -6.5909   -0.0547   -0.7562 H       1  UNL1        0.0618
     30 H          -5.4391    1.3226    0.9560 H       1  UNL1        0.0618
     31 H          -3.0107    1.2320    1.1970 H       1  UNL1        0.0636
@<TRIPOS>BOND
     1     1     2    2
     2     2     3    1
     3     3     4   ar
     4     4     5   ar
     5     5     6   ar
     6     6     7   ar
     7     7     8   ar
     8     8     9    1
     9     9    10    2
    10     9    11   am
    11    11    12    1
    12    12    13    1
    13    13    14    1
    14    14    15   ar
    15    15    16   ar
    16    16    17   ar
    17    17    18   ar
    18    18    19   ar
    19    11     2   am
    20    19    14   ar
    21     8     3   ar
    22     4    20    1
    23     5    21    1
    24     6    22    1
    25     7    23    1
    26    12    24    1
    27    12    25    1
    28    13    26    1
    29    15    27    1
    30    16    28    1
    31    17    29    1
    32    18    30    1
    33    19    31    1
