@<TRIPOS>MOLECULE
*****
 23 25 0 0 0
SMALL
GASTEIGER

@<TRIPOS>ATOM
      1 O           0.6695    2.3894    0.6090 O.2     1  UNL1       -0.2513
      2 C           0.4542    1.2173    0.3170 C.2     1  UNL1        0.3120
      3 C          -0.9352    0.7200    0.1159 C.ar    1  UNL1        0.0895
      4 C          -2.0223    1.5884    0.2583 C.ar    1  UNL1       -0.0450
      5 C          -3.3169    1.1077    0.0668 C.ar    1  UNL1       -0.0608
      6 C          -3.5215   -0.2325   -0.2646 C.ar    1  UNL1       -0.0586
      7 C          -2.4337   -1.0996   -0.4066 C.ar    1  UNL1       -0.0244
      8 C          -1.1296   -0.6332   -0.2180 C.ar    1  UNL1        0.1052
      9 N          -0.0322   -1.4876   -0.3564 N.pl3   1  UNL1       -0.2050
     10 C           1.2369   -1.0453   -0.1755 C.2     1  UNL1        0.3789
     11 N           2.3053   -1.7697   -0.2846 N.2     1  UNL1       -0.1134
     12 C           3.4411   -0.8520    0.0015 C.3     1  UNL1        0.1335
     13 C           2.8414    0.5136    0.2912 C.3     1  UNL1        0.1026
     14 N           1.4431    0.2726    0.1507 N.am    1  UNL1       -0.1546
     15 H          -1.8613    2.6327    0.5166 H       1  UNL1        0.0627
     16 H          -4.1664    1.7780    0.1760 H       1  UNL1        0.0618
     17 H          -4.5331   -0.6041   -0.4132 H       1  UNL1        0.0619
     18 H          -2.6170   -2.1394   -0.6652 H       1  UNL1        0.0650
     19 H          -0.1649   -2.4587   -0.5955 H       1  UNL1        0.2512
     20 H           4.1116   -0.8151   -0.8634 H       1  UNL1        0.0723
     21 H           4.0092   -1.2256    0.8598 H       1  UNL1        0.0723
     22 H           3.0596    0.8656    1.3044 H       1  UNL1        0.0672
     23 H           3.1623    1.2774   -0.4242 H       1  UNL1        0.0672
@<TRIPOS>BOND
     1     1     2    2
     2     2     3    1
     3     3     4   ar
     4     4     5   ar
     5     5     6   ar
     6     6     7   ar
     7     7     8   ar
     8     8     9    1
     9     9    10    1
    10    10    11    2
    11    11    12    1
    12    12    13    1
    13    13    14    1
    14    14     2   am
    15     8     3   ar
    16    14    10    1
    17     4    15    1
    18     5    16    1
    19     6    17    1
    20     7    18    1
    21     9    19    1
    22    12    20    1
    23    12    21    1
    24    13    22    1
    25    13    23    1
