@<TRIPOS>MOLECULE
*****
 35 39 0 0 0
SMALL
GASTEIGER

@<TRIPOS>ATOM
      1 O          -1.8789    2.0753    1.4621 O.2     1  UNL1       -0.2722
      2 C          -1.4130    1.0402    1.0003 C.2     1  UNL1        0.2352
      3 C           0.0194    0.6205    1.1837 C.3     1  UNL1        0.0433
      4 C           0.6199    0.0241   -0.0823 C.3     1  UNL1        0.0462
      5 C           2.1243   -0.1579    0.0093 C.ar    1  UNL1       -0.0299
      6 C           2.7281   -0.8617    1.0820 C.ar    1  UNL1       -0.0538
      7 C           4.1167   -1.0199    1.1568 C.ar    1  UNL1       -0.0158
      8 C           4.8802   -0.4720    0.1513 C.ar    1  UNL1        0.1662
      9 C           4.3106    0.2072   -0.8976 C.ar    1  UNL1        0.1665
     10 C           2.9454    0.3796   -0.9996 C.ar    1  UNL1       -0.0119
     11 O           5.2355    0.6660   -1.7826 O.3     1  UNL1       -0.4526
     12 C           6.4533    0.1875   -1.1739 C.3     1  UNL1        0.2332
     13 O           6.2352   -0.5278    0.0600 O.3     1  UNL1       -0.4526
     14 S          -0.2137   -1.5548   -0.4231 S.3     1  UNL1       -0.0787
     15 C          -1.8600   -1.0368   -0.2976 C.ar    1  UNL1        0.1771
     16 N          -2.8653   -1.7015   -0.8087 N.ar    1  UNL1       -0.2214
     17 C          -3.9650   -0.9340   -0.5449 C.ar    1  UNL1        0.0906
     18 C          -5.3067   -1.1684   -0.8824 C.ar    1  UNL1       -0.0342
     19 C          -6.2732   -0.2291   -0.5082 C.ar    1  UNL1       -0.0596
     20 C          -5.9115    0.9222    0.1900 C.ar    1  UNL1       -0.0597
     21 C          -4.5787    1.1720    0.5367 C.ar    1  UNL1       -0.0356
     22 C          -3.6192    0.2216    0.1534 C.ar    1  UNL1        0.0770
     23 N          -2.2413    0.1308    0.3307 N.ar    1  UNL1       -0.2574
     24 H           0.0717   -0.0575    2.0450 H       1  UNL1        0.0375
     25 H           0.5816    1.5224    1.4605 H       1  UNL1        0.0375
     26 H           0.3968    0.6902   -0.9263 H       1  UNL1        0.0470
     27 H           2.1171   -1.3066    1.8655 H       1  UNL1        0.0622
     28 H           4.5781   -1.5613    1.9752 H       1  UNL1        0.0655
     29 H           2.5346    0.9175   -1.8482 H       1  UNL1        0.0658
     30 H           6.9605   -0.4791   -1.8811 H       1  UNL1        0.1166
     31 H           7.1041    1.0458   -0.9710 H       1  UNL1        0.1166
     32 H          -5.5806   -2.0662   -1.4264 H       1  UNL1        0.0639
     33 H          -7.3158   -0.4009   -0.7655 H       1  UNL1        0.0618
     34 H          -6.6786    1.6408    0.4730 H       1  UNL1        0.0618
     35 H          -4.3116    2.0717    1.0840 H       1  UNL1        0.0639
@<TRIPOS>BOND
     1     1     2    2
     2     2     3    1
     3     3     4    1
     4     4     5    1
     5     5     6   ar
     6     6     7   ar
     7     7     8   ar
     8     8     9   ar
     9     9    10   ar
    10     9    11    1
    11    11    12    1
    12    12    13    1
    13     4    14    1
    14    14    15    1
    15    15    16   ar
    16    16    17   ar
    17    17    18   ar
    18    18    19   ar
    19    19    20   ar
    20    20    21   ar
    21    21    22   ar
    22    22    23   ar
    23    23     2   am
    24    10     5   ar
    25    23    15   ar
    26    13     8    1
    27    22    17   ar
    28     3    24    1
    29     3    25    1
    30     4    26    1
    31     6    27    1
    32     7    28    1
    33    10    29    1
    34    12    30    1
    35    12    31    1
    36    18    32    1
    37    19    33    1
    38    20    34    1
    39    21    35    1
