@<TRIPOS>MOLECULE
*****
 32 34 0 0 0
SMALL
GASTEIGER

@<TRIPOS>ATOM
      1 O          -0.2968    3.9742   -1.6502 O.2     1  UNL1       -0.2679
      2 C          -0.4226    2.8512   -1.1763 C.ar    1  UNL1        0.2495
      3 C           0.7547    2.0182   -0.8490 C.ar    1  UNL1        0.0108
      4 C           0.5918    0.7851   -0.3347 C.ar    1  UNL1       -0.0080
      5 C           1.8304    0.0446   -0.0281 C.ar    1  UNL1       -0.0174
      6 C           2.3586    0.0617    1.2690 C.ar    1  UNL1       -0.0540
      7 C           3.5272   -0.6438    1.5613 C.ar    1  UNL1       -0.0612
      8 C           4.1728   -1.3697    0.5609 C.ar    1  UNL1       -0.0617
      9 C           3.6521   -1.3925   -0.7325 C.ar    1  UNL1       -0.0612
     10 C           2.4837   -0.6879   -1.0277 C.ar    1  UNL1       -0.0540
     11 C          -0.7590    0.2626   -0.1007 C.ar    1  UNL1       -0.0203
     12 C          -1.8280    1.0333   -0.3880 C.ar    1  UNL1        0.0228
     13 N          -1.6443    2.2914   -0.9126 N.ar    1  UNL1       -0.3260
     14 C          -3.2518    0.6016   -0.1555 C.3     1  UNL1       -0.0121
     15 C          -3.3641   -0.6298    0.7435 C.3     1  UNL1       -0.0474
     16 C          -2.3385   -1.6844    0.3490 C.3     1  UNL1       -0.0486
     17 C          -0.9119   -1.1364    0.4526 C.3     1  UNL1       -0.0255
     18 H           1.7214    2.4664   -1.0431 H       1  UNL1        0.0678
     19 H           1.8626    0.6249    2.0562 H       1  UNL1        0.0624
     20 H           3.9342   -0.6261    2.5690 H       1  UNL1        0.0618
     21 H           5.0833   -1.9180    0.7894 H       1  UNL1        0.0618
     22 H           4.1559   -1.9587   -1.5116 H       1  UNL1        0.0618
     23 H           2.0843   -0.7143   -2.0390 H       1  UNL1        0.0624
     24 H          -2.4426    2.8731   -1.1347 H       1  UNL1        0.1686
     25 H          -3.8258    1.4182    0.2992 H       1  UNL1        0.0328
     26 H          -3.7135    0.3864   -1.1274 H       1  UNL1        0.0328
     27 H          -3.2060   -0.3393    1.7900 H       1  UNL1        0.0269
     28 H          -4.3763   -1.0442    0.6770 H       1  UNL1        0.0269
     29 H          -2.4405   -2.5675    0.9899 H       1  UNL1        0.0269
     30 H          -2.5317   -2.0140   -0.6800 H       1  UNL1        0.0269
     31 H          -0.2504   -1.8356   -0.0725 H       1  UNL1        0.0314
     32 H          -0.6091   -1.1306    1.5074 H       1  UNL1        0.0314
@<TRIPOS>BOND
     1     1     2    2
     2     2     3   ar
     3     3     4   ar
     4     4     5    1
     5     5     6   ar
     6     6     7   ar
     7     7     8   ar
     8     8     9   ar
     9     9    10   ar
    10     4    11   ar
    11    11    12   ar
    12    12    13   ar
    13    12    14    1
    14    14    15    1
    15    15    16    1
    16    16    17    1
    17    13     2   ar
    18    10     5   ar
    19    17    11    1
    20     3    18    1
    21     6    19    1
    22     7    20    1
    23     8    21    1
    24     9    22    1
    25    10    23    1
    26    13    24    1
    27    14    25    1
    28    14    26    1
    29    15    27    1
    30    15    28    1
    31    16    29    1
    32    16    30    1
    33    17    31    1
    34    17    32    1
