@<TRIPOS>MOLECULE
*****
 37 40 0 0 0
SMALL
GASTEIGER

@<TRIPOS>ATOM
      1 O          -1.2177   -4.5395   -0.4291 O.2     1  UNL1       -0.2754
      2 C          -0.8463   -3.3704   -0.3546 C.2     1  UNL1        0.2181
      3 C          -1.7887   -2.2107   -0.5386 C.3     1  UNL1        0.0352
      4 C          -1.4009   -1.0117    0.3314 C.3     1  UNL1        0.0219
      5 C          -2.3353    0.1501    0.0215 C.ar    1  UNL1       -0.0043
      6 C          -2.3160    0.8052   -1.2223 C.ar    1  UNL1       -0.0553
      7 C          -3.1905    1.8636   -1.4832 C.ar    1  UNL1       -0.0613
      8 C          -4.0977    2.2804   -0.5099 C.ar    1  UNL1       -0.0590
      9 C          -4.1310    1.6381    0.7256 C.ar    1  UNL1       -0.0262
     10 C          -3.2571    0.5845    0.9809 C.ar    1  UNL1        0.1271
     11 F          -3.3150   -0.0180    2.1772 F       1  UNL1       -0.2052
     12 C           0.0854   -0.7018    0.2110 C.ar    1  UNL1       -0.0180
     13 C           0.6104    0.5759    0.4743 C.ar    1  UNL1       -0.0528
     14 C           1.9830    0.7614    0.4267 C.ar    1  UNL1       -0.0438
     15 C           2.8483   -0.3034    0.1651 C.ar    1  UNL1       -0.0424
     16 C           2.3608   -1.5797   -0.0515 C.ar    1  UNL1       -0.0368
     17 C           0.9755   -1.7694   -0.0355 C.ar    1  UNL1        0.0374
     18 N           0.4775   -3.0626   -0.2181 N.am    1  UNL1       -0.2852
     19 C           4.2759    0.1411    0.2309 C.3     1  UNL1       -0.0271
     20 C           4.1203    1.6631    0.1005 C.3     1  UNL1       -0.0450
     21 C           2.7509    2.0177    0.6977 C.3     1  UNL1       -0.0271
     22 H          -2.8032   -2.5434   -0.2868 H       1  UNL1        0.0368
     23 H          -1.7787   -1.9632   -1.6078 H       1  UNL1        0.0368
     24 H          -1.5404   -1.3058    1.3818 H       1  UNL1        0.0403
     25 H          -1.6126    0.4999   -1.9950 H       1  UNL1        0.0621
     26 H          -3.1627    2.3634   -2.4488 H       1  UNL1        0.0618
     27 H          -4.7780    3.1030   -0.7151 H       1  UNL1        0.0618
     28 H          -4.8332    1.9488    1.4929 H       1  UNL1        0.0646
     29 H          -0.0350    1.4125    0.7274 H       1  UNL1        0.0624
     30 H           3.0436   -2.4043   -0.2267 H       1  UNL1        0.0639
     31 H           1.1127   -3.8504   -0.2331 H       1  UNL1        0.1548
     32 H           4.7109   -0.1307    1.1982 H       1  UNL1        0.0313
     33 H           4.8807   -0.2697   -0.5822 H       1  UNL1        0.0313
     34 H           4.9392    2.2096    0.5786 H       1  UNL1        0.0272
     35 H           4.1291    1.9351   -0.9644 H       1  UNL1        0.0272
     36 H           2.3140    2.8905    0.2046 H       1  UNL1        0.0313
     37 H           2.8220    2.1906    1.7764 H       1  UNL1        0.0313
@<TRIPOS>BOND
     1     1     2    2
     2     2     3    1
     3     3     4    1
     4     4     5    1
     5     5     6   ar
     6     6     7   ar
     7     7     8   ar
     8     8     9   ar
     9     9    10   ar
    10    10    11    1
    11     4    12    1
    12    12    13   ar
    13    13    14   ar
    14    14    15   ar
    15    15    16   ar
    16    16    17   ar
    17    17    18    1
    18    15    19    1
    19    19    20    1
    20    20    21    1
    21    18     2   am
    22    10     5   ar
    23    17    12   ar
    24    21    14    1
    25     3    22    1
    26     3    23    1
    27     4    24    1
    28     6    25    1
    29     7    26    1
    30     8    27    1
    31     9    28    1
    32    13    29    1
    33    16    30    1
    34    18    31    1
    35    19    32    1
    36    19    33    1
    37    20    34    1
    38    20    35    1
    39    21    36    1
    40    21    37    1
