@<TRIPOS>MOLECULE
*****
 35 38 0 0 0
SMALL
GASTEIGER

@<TRIPOS>ATOM
      1 O           1.3659   -4.4975    0.1012 O.2     1  UNL1       -0.2754
      2 C           0.9794   -3.3332    0.0376 C.2     1  UNL1        0.2181
      3 C           1.9096   -2.1885   -0.2687 C.3     1  UNL1        0.0352
      4 C           1.4978   -0.9080    0.4641 C.3     1  UNL1        0.0208
      5 C           2.4203    0.2282    0.0589 C.ar    1  UNL1       -0.0214
      6 C           2.4749    0.7251   -1.2497 C.ar    1  UNL1       -0.0551
      7 C           3.3430    1.7676   -1.5607 C.ar    1  UNL1       -0.0433
      8 C           4.1352    2.2847   -0.5507 C.ar    1  UNL1        0.0276
      9 N           4.1141    1.8362    0.7218 N.ar    1  UNL1       -0.2630
     10 C           3.2618    0.8232    0.9967 C.ar    1  UNL1        0.0313
     11 C           0.0115   -0.6336    0.2901 C.ar    1  UNL1       -0.0146
     12 C          -0.5399    0.6554    0.3803 C.ar    1  UNL1       -0.0108
     13 C          -1.9204    0.8418    0.2998 C.ar    1  UNL1        0.1625
     14 C          -2.7722   -0.2594    0.1861 C.ar    1  UNL1        0.1638
     15 C          -2.2438   -1.5451    0.1116 C.ar    1  UNL1        0.0052
     16 C          -0.8603   -1.7264    0.1617 C.ar    1  UNL1        0.0409
     17 N          -0.3492   -3.0267    0.1312 N.am    1  UNL1       -0.2851
     18 O          -4.1389   -0.1518    0.1437 O.3     1  UNL1       -0.4849
     19 C          -4.5748    1.1423    0.5773 C.3     1  UNL1        0.1237
     20 C          -3.7350    2.2345   -0.0639 C.3     1  UNL1        0.1237
     21 O          -2.3704    2.1358    0.3593 O.3     1  UNL1       -0.4849
     22 H           2.9264   -2.4778    0.0243 H       1  UNL1        0.0368
     23 H           1.9038   -2.0597   -1.3586 H       1  UNL1        0.0368
     24 H           1.6284   -1.0887    1.5417 H       1  UNL1        0.0403
     25 H           1.8387    0.3123   -2.0291 H       1  UNL1        0.0621
     26 H           3.3984    2.1683   -2.5666 H       1  UNL1        0.0633
     27 H           4.8282    3.0987   -0.7434 H       1  UNL1        0.0829
     28 H           3.2786    0.4953    2.0332 H       1  UNL1        0.0832
     29 H           0.0934    1.5296    0.5148 H       1  UNL1        0.0659
     30 H          -2.9178   -2.3919    0.0233 H       1  UNL1        0.0674
     31 H          -0.9765   -3.8193    0.1975 H       1  UNL1        0.1548
     32 H          -5.6246    1.2526    0.2880 H       1  UNL1        0.0731
     33 H          -4.5157    1.1808    1.6721 H       1  UNL1        0.0731
     34 H          -3.7658    2.1744   -1.1590 H       1  UNL1        0.0731
     35 H          -4.1044    3.2206    0.2343 H       1  UNL1        0.0731
@<TRIPOS>BOND
     1     1     2    2
     2     2     3    1
     3     3     4    1
     4     4     5    1
     5     5     6   ar
     6     6     7   ar
     7     7     8   ar
     8     8     9   ar
     9     9    10   ar
    10     4    11    1
    11    11    12   ar
    12    12    13   ar
    13    13    14   ar
    14    14    15   ar
    15    15    16   ar
    16    16    17    1
    17    14    18    1
    18    18    19    1
    19    19    20    1
    20    20    21    1
    21    17     2   am
    22    10     5   ar
    23    16    11   ar
    24    21    13    1
    25     3    22    1
    26     3    23    1
    27     4    24    1
    28     6    25    1
    29     7    26    1
    30     8    27    1
    31    10    28    1
    32    12    29    1
    33    15    30    1
    34    17    31    1
    35    19    32    1
    36    19    33    1
    37    20    34    1
    38    20    35    1
