@<TRIPOS>MOLECULE
*****
 40 42 0 0 0
SMALL
GASTEIGER

@<TRIPOS>ATOM
      1 O           3.7308   -0.7851   -3.0006 O.2     1  UNL1       -0.2838
      2 C           3.3075   -0.6550   -1.8559 C.ar    1  UNL1        0.2267
      3 C           4.2044   -0.5798   -0.6974 C.ar    1  UNL1        0.0292
      4 C           3.6673   -0.4272    0.5194 C.ar    1  UNL1        0.1344
      5 C           4.4923   -0.3368    1.7684 C.3     1  UNL1        0.1020
      6 O           4.1972   -1.4364    2.6189 O.3     1  UNL1       -0.3873
      7 O           2.3018   -0.3327    0.7353 O.2     1  UNL1       -0.4561
      8 C           1.4141   -0.4003   -0.3419 C.ar    1  UNL1        0.1748
      9 C          -0.0442   -0.2902    0.1041 C.3     1  UNL1        0.1118
     10 N          -0.8993   -1.1072   -0.7538 N.pl3   1  UNL1       -0.3153
     11 C          -2.1970   -1.3627   -0.3049 C.ar    1  UNL1        0.1194
     12 C          -3.0800   -1.9989   -1.1759 C.ar    1  UNL1       -0.0219
     13 C          -4.3687   -2.3120   -0.7487 C.ar    1  UNL1       -0.0571
     14 C          -4.7447   -1.9967    0.5476 C.ar    1  UNL1       -0.0435
     15 C          -3.8061   -1.3886    1.3603 C.ar    1  UNL1        0.0297
     16 N          -2.5503   -1.0798    0.9657 N.ar    1  UNL1       -0.2405
     17 C          -0.4722    1.1685    0.1937 C.ar    1  UNL1        0.0154
     18 C          -0.4412    1.8281    1.4366 C.ar    1  UNL1       -0.0536
     19 C          -0.8004    3.1746    1.5441 C.ar    1  UNL1       -0.0613
     20 C          -1.1929    3.8860    0.4122 C.ar    1  UNL1       -0.0590
     21 C          -1.2276    3.2490   -0.8257 C.ar    1  UNL1       -0.0261
     22 C          -0.8690    1.9059   -0.9266 C.ar    1  UNL1        0.1288
     23 F          -0.9194    1.3302   -2.1365 F       1  UNL1       -0.2051
     24 C           1.8476   -0.5593   -1.6068 C.ar    1  UNL1        0.2048
     25 O           1.0185   -0.6192   -2.7121 O.3     1  UNL1       -0.5009
     26 H           5.2672   -0.6580   -0.8824 H       1  UNL1        0.0691
     27 H           4.2686    0.5900    2.3065 H       1  UNL1        0.0638
     28 H           5.5658   -0.3520    1.5557 H       1  UNL1        0.0638
     29 H           3.2283   -1.5273    2.6434 H       1  UNL1        0.2100
     30 H          -0.0780   -0.7302    1.1118 H       1  UNL1        0.0632
     31 H          -0.8999   -0.7342   -1.7029 H       1  UNL1        0.1485
     32 H          -2.7655   -2.2538   -2.1827 H       1  UNL1        0.0652
     33 H          -5.0645   -2.8017   -1.4230 H       1  UNL1        0.0619
     34 H          -5.7373   -2.2245    0.9174 H       1  UNL1        0.0633
     35 H          -4.0428   -1.1262    2.3871 H       1  UNL1        0.0830
     36 H          -0.1458    1.2875    2.3339 H       1  UNL1        0.0622
     37 H          -0.7780    3.6657    2.5140 H       1  UNL1        0.0618
     38 H          -1.4756    4.9320    0.4953 H       1  UNL1        0.0618
     39 H          -1.5349    3.7872   -1.7168 H       1  UNL1        0.0646
     40 H           1.6241   -0.7284   -3.4767 H       1  UNL1        0.2924
@<TRIPOS>BOND
     1     1     2    2
     2     2     3   ar
     3     3     4   ar
     4     4     5    1
     5     5     6    1
     6     4     7   ar
     7     7     8   ar
     8     8     9    1
     9     9    10    1
    10    10    11    1
    11    11    12   ar
    12    12    13   ar
    13    13    14   ar
    14    14    15   ar
    15    15    16   ar
    16     9    17    1
    17    17    18   ar
    18    18    19   ar
    19    19    20   ar
    20    20    21   ar
    21    21    22   ar
    22    22    23    1
    23     8    24   ar
    24    24    25    1
    25    24     2   ar
    26    16    11   ar
    27    22    17   ar
    28     3    26    1
    29     5    27    1
    30     5    28    1
    31     6    29    1
    32     9    30    1
    33    10    31    1
    34    12    32    1
    35    13    33    1
    36    14    34    1
    37    15    35    1
    38    18    36    1
    39    19    37    1
    40    20    38    1
    41    21    39    1
    42    25    40    1
