@<TRIPOS>MOLECULE
*****
 41 44 0 0 0
SMALL
GASTEIGER

@<TRIPOS>ATOM
      1 O           2.0679   -2.5289    0.1002 O.2     1  UNL1       -0.2747
      2 C           1.5297   -1.5398    0.5822 C.2     1  UNL1        0.2285
      3 C           0.1387   -1.6151    1.1265 C.3     1  UNL1        0.0519
      4 C          -0.2597   -0.1713    1.3291 C.3     1  UNL1        0.1090
      5 N          -1.2756    0.2846    0.3435 N.pl3   1  UNL1       -0.3177
      6 C          -0.8162    0.6448   -1.0078 C.3     1  UNL1        0.0133
      7 C          -1.8574    1.4803   -1.7295 C.3     1  UNL1       -0.0332
      8 C          -3.1156    0.6535   -1.9018 C.3     1  UNL1       -0.0245
      9 C          -3.5259    0.0096   -0.6023 C.ar    1  UNL1       -0.0263
     10 C          -4.8528   -0.4505   -0.4953 C.ar    1  UNL1       -0.0568
     11 C          -5.3023   -1.0552    0.6712 C.ar    1  UNL1       -0.0614
     12 C          -4.4290   -1.2028    1.7377 C.ar    1  UNL1       -0.0600
     13 C          -3.1050   -0.7585    1.6308 C.ar    1  UNL1       -0.0404
     14 C          -2.6051   -0.1623    0.4579 C.ar    1  UNL1        0.0335
     15 C           1.0595    0.5814    1.2444 C.2     1  UNL1        0.2471
     16 O           1.1722    1.7504    1.5965 O.2     1  UNL1       -0.2728
     17 N           2.0262   -0.2635    0.7327 N.am    1  UNL1       -0.2088
     18 C           3.3634    0.1358    0.4015 C.ar    1  UNL1        0.0439
     19 C           4.3730   -0.8071    0.1417 C.ar    1  UNL1       -0.0398
     20 C           5.6793   -0.4185   -0.1847 C.ar    1  UNL1       -0.0600
     21 C           6.0107    0.9276   -0.2605 C.ar    1  UNL1       -0.0616
     22 C           5.0348    1.8828   -0.0100 C.ar    1  UNL1       -0.0600
     23 C           3.7296    1.4904    0.3161 C.ar    1  UNL1       -0.0398
     24 H           0.1719   -2.1533    2.0798 H       1  UNL1        0.0382
     25 H          -0.5062   -2.1569    0.4285 H       1  UNL1        0.0382
     26 H          -0.6182   -0.0089    2.3521 H       1  UNL1        0.0601
     27 H          -0.5824   -0.2644   -1.5763 H       1  UNL1        0.0464
     28 H           0.1012    1.2400   -0.9611 H       1  UNL1        0.0464
     29 H          -2.0759    2.3873   -1.1513 H       1  UNL1        0.0283
     30 H          -1.4824    1.7989   -2.7083 H       1  UNL1        0.0283
     31 H          -3.9178    1.3001   -2.2765 H       1  UNL1        0.0314
     32 H          -2.9475   -0.1367   -2.6439 H       1  UNL1        0.0314
     33 H          -5.5417   -0.3277   -1.3282 H       1  UNL1        0.0621
     34 H          -6.3292   -1.4002    0.7496 H       1  UNL1        0.0618
     35 H          -4.7725   -1.6609    2.6616 H       1  UNL1        0.0618
     36 H          -2.4846   -0.8945    2.5094 H       1  UNL1        0.0636
     37 H           4.1918   -1.8762    0.2026 H       1  UNL1        0.0636
     38 H           6.4351   -1.1768   -0.3756 H       1  UNL1        0.0618
     39 H           7.0232    1.2303   -0.5131 H       1  UNL1        0.0618
     40 H           5.2805    2.9405   -0.0690 H       1  UNL1        0.0618
     41 H           3.0145    2.2917    0.4780 H       1  UNL1        0.0636
@<TRIPOS>BOND
     1     1     2    2
     2     2     3    1
     3     3     4    1
     4     4     5    1
     5     5     6    1
     6     6     7    1
     7     7     8    1
     8     8     9    1
     9     9    10   ar
    10    10    11   ar
    11    11    12   ar
    12    12    13   ar
    13    13    14   ar
    14     4    15    1
    15    15    16    2
    16    15    17   am
    17    17    18    1
    18    18    19   ar
    19    19    20   ar
    20    20    21   ar
    21    21    22   ar
    22    22    23   ar
    23    17     2   am
    24    23    18   ar
    25    14     5    1
    26    14     9   ar
    27     3    24    1
    28     3    25    1
    29     4    26    1
    30     6    27    1
    31     6    28    1
    32     7    29    1
    33     7    30    1
    34     8    31    1
    35     8    32    1
    36    10    33    1
    37    11    34    1
    38    12    35    1
    39    13    36    1
    40    19    37    1
    41    20    38    1
    42    21    39    1
    43    22    40    1
    44    23    41    1
