@<TRIPOS>MOLECULE
*****
 38 44 0 0 0
SMALL
GASTEIGER

@<TRIPOS>ATOM
      1 SI         -5.7804    1.7940    1.1687 Si      1  UNL1        0.0000
      2 C          -6.8904    0.3024    0.7136 C.2     1  UNL1        0.0000
      3 C          -6.1703   -0.7456    0.2588 C.2     1  UNL1        0.0000
      4 C          -4.7763   -0.4603    0.2394 C.ar    1  UNL1        0.0000
      5 S          -3.5124   -1.4599   -0.2468 S.2     1  UNL1        0.0000
      6 C          -2.3020   -0.2460    0.0963 C.ar    1  UNL1        0.0000
      7 C          -2.9012    0.9319    0.5882 C.ar    1  UNL1        0.0000
      8 C          -2.0761    2.0146    0.9157 C.ar    1  UNL1        0.0000
      9 N          -0.7332    1.9551    0.7728 N.ar    1  UNL1        0.0000
     10 C          -0.1421    0.8519    0.3123 C.ar    1  UNL1        0.0000
     11 C           1.2764    0.8802    0.1979 C.ar    1  UNL1        0.0000
     12 C           2.1220   -0.1702   -0.2693 C.ar    1  UNL1        0.0000
     13 C           3.5680   -0.1036   -0.3830 C.ar    1  UNL1        0.0000
     14 N           4.1760   -0.6871   -1.4725 N.ar    1  UNL1        0.0000
     15 C           5.5332   -0.6449   -1.6526 C.ar    1  UNL1        0.0000
     16 C           6.4735   -0.0504   -0.8211 C.ar    1  UNL1        0.0000
     17 C           5.9081    0.5567    0.3144 C.ar    1  UNL1        0.0000
     18 N           6.5980    1.1937    1.2739 N.ar    1  UNL1        0.0000
     19 S           5.4849    1.7187    2.3863 S.2     1  UNL1        0.0000
     20 N           4.0808    1.1649    1.7018 N.ar    1  UNL1        0.0000
     21 C           4.4199    0.5410    0.5579 C.ar    1  UNL1        0.0000
     22 C           1.3353   -1.2720   -0.6176 C.ar    1  UNL1        0.0000
     23 C           1.7527   -2.4874   -1.0979 C.ar    1  UNL1        0.0000
     24 O           0.6770   -3.3000   -1.3006 O.2     1  UNL1        0.0000
     25 C          -0.4402   -2.5986   -0.9452 C.ar    1  UNL1        0.0000
     26 C          -0.0939   -1.3426   -0.5127 C.ar    1  UNL1        0.0000
     27 C          -0.9037   -0.2968   -0.0484 C.ar    1  UNL1        0.0000
     28 C          -4.2954    0.7583    0.6495 C.ar    1  UNL1        0.0000
     29 H          -5.8326    2.0795    2.6233 H       1  UNL1        0.0000
     30 H          -6.0437    2.9517    0.2796 H       1  UNL1        0.0000
     31 H          -7.9609    0.3592    0.8312 H       1  UNL1        0.0000
     32 H          -6.5894   -1.6932   -0.0561 H       1  UNL1        0.0000
     33 H          -2.4622    2.9534    1.2989 H       1  UNL1        0.0000
     34 H           1.7503    1.8192    0.4959 H       1  UNL1        0.0000
     35 H           5.8658   -1.1452   -2.5624 H       1  UNL1        0.0000
     36 H           7.5347   -0.0543   -1.0232 H       1  UNL1        0.0000
     37 H           2.7123   -2.9211   -1.3427 H       1  UNL1        0.0000
     38 H          -1.3624   -3.1472   -1.0641 H       1  UNL1        0.0000
@<TRIPOS>BOND
     1     1     2    1
     2     2     3    2
     3     3     4    1
     4     4     5   ar
     5     5     6   ar
     6     6     7   ar
     7     7     8   ar
     8     8     9   ar
     9     9    10   ar
    10    10    11   ar
    11    11    12   ar
    12    12    13    1
    13    13    14   ar
    14    14    15   ar
    15    15    16   ar
    16    16    17   ar
    17    17    18   ar
    18    18    19   ar
    19    19    20   ar
    20    20    21   ar
    21    12    22   ar
    22    22    23   ar
    23    23    24   ar
    24    24    25   ar
    25    25    26   ar
    26    26    27   ar
    27     7    28   ar
    28    28     1    1
    29    28     4   ar
    30    27     6   ar
    31    27    10   ar
    32    21    13   ar
    33    26    22   ar
    34    21    17   ar
    35     1    29    1
    36     1    30    1
    37     2    31    1
    38     3    32    1
    39     8    33    1
    40    11    34    1
    41    15    35    1
    42    16    36    1
    43    23    37    1
    44    25    38    1
