@<TRIPOS>MOLECULE
*****
 44 48 0 0 0
SMALL
GASTEIGER

@<TRIPOS>ATOM
      1 O           6.5492    2.0156   -1.1632 O.2     1  UNL1       -0.2872
      2 C           6.0500    1.0214   -0.6487 C.ar    1  UNL1        0.1894
      3 C           6.9129   -0.0534   -0.0985 C.ar    1  UNL1        0.0017
      4 C           6.3239   -1.1266    0.4396 C.ar    1  UNL1        0.0058
      5 N           4.9704   -1.3162    0.5052 N.ar    1  UNL1       -0.3604
      6 C           4.0826   -0.3242    0.0612 C.ar    1  UNL1        0.0507
      7 C           2.6980   -0.5047    0.1480 C.ar    1  UNL1       -0.0300
      8 C           1.8029    0.4726   -0.3287 C.ar    1  UNL1       -0.0159
      9 C           0.3486    0.2760   -0.2233 C.ar    1  UNL1       -0.0172
     10 C          -0.4630    1.2152    0.4251 C.ar    1  UNL1       -0.0491
     11 C          -1.8553    1.0401    0.5192 C.ar    1  UNL1       -0.0255
     12 C          -2.4721   -0.1069   -0.0146 C.ar    1  UNL1        0.0361
     13 C          -1.6575   -1.0589   -0.6559 C.ar    1  UNL1       -0.0255
     14 C          -0.2701   -0.8566   -0.7673 C.ar    1  UNL1       -0.0491
     15 C          -2.2678   -2.2945   -1.2672 C.3     1  UNL1       -0.0245
     16 C          -3.5963   -2.6340   -0.6070 C.3     1  UNL1       -0.0332
     17 C          -4.4913   -1.4047   -0.5970 C.3     1  UNL1        0.0125
     18 N          -3.8435   -0.2941    0.0888 N.pl3   1  UNL1       -0.3294
     19 C          -4.6610    0.6294    0.8650 C.3     1  UNL1        0.0125
     20 C          -4.1260    2.0492    0.7652 C.3     1  UNL1       -0.0332
     21 C          -2.6775    2.0842    1.2309 C.3     1  UNL1       -0.0245
     22 C           2.3315    1.6388   -0.9101 C.ar    1  UNL1       -0.0532
     23 C           3.7110    1.8266   -1.0202 C.ar    1  UNL1       -0.0484
     24 C           4.5785    0.8444   -0.5400 C.ar    1  UNL1        0.0450
     25 H           7.9839    0.0821   -0.1505 H       1  UNL1        0.0670
     26 H           6.9108   -1.9354    0.8658 H       1  UNL1        0.0808
     27 H           4.6105   -2.0803    1.0650 H       1  UNL1        0.1653
     28 H           2.3033   -1.4114    0.6012 H       1  UNL1        0.0644
     29 H          -0.0100    2.1002    0.8688 H       1  UNL1        0.0627
     30 H           0.3315   -1.5962   -1.2928 H       1  UNL1        0.0627
     31 H          -1.5887   -3.1480   -1.1562 H       1  UNL1        0.0314
     32 H          -2.4131   -2.1185   -2.3400 H       1  UNL1        0.0314
     33 H          -4.0837   -3.4551   -1.1440 H       1  UNL1        0.0283
     34 H          -3.4245   -2.9741    0.4226 H       1  UNL1        0.0283
     35 H          -4.7379   -1.1021   -1.6221 H       1  UNL1        0.0464
     36 H          -5.4351   -1.6600   -0.1006 H       1  UNL1        0.0464
     37 H          -4.6804    0.3011    1.9114 H       1  UNL1        0.0464
     38 H          -5.6966    0.6169    0.5048 H       1  UNL1        0.0464
     39 H          -4.1919    2.3967   -0.2742 H       1  UNL1        0.0283
     40 H          -4.7329    2.7280    1.3743 H       1  UNL1        0.0283
     41 H          -2.6223    1.8977    2.3102 H       1  UNL1        0.0314
     42 H          -2.2686    3.0836    1.0415 H       1  UNL1        0.0314
     43 H           1.6638    2.4064   -1.2983 H       1  UNL1        0.0624
     44 H           4.1042    2.7297   -1.4812 H       1  UNL1        0.0625
@<TRIPOS>BOND
     1     1     2    2
     2     2     3   ar
     3     3     4   ar
     4     4     5   ar
     5     5     6   ar
     6     6     7   ar
     7     7     8   ar
     8     8     9    1
     9     9    10   ar
    10    10    11   ar
    11    11    12   ar
    12    12    13   ar
    13    13    14   ar
    14    13    15    1
    15    15    16    1
    16    16    17    1
    17    17    18    1
    18    18    19    1
    19    19    20    1
    20    20    21    1
    21     8    22   ar
    22    22    23   ar
    23    23    24   ar
    24    24     2   ar
    25    24     6   ar
    26    14     9   ar
    27    21    11    1
    28    18    12    1
    29     3    25    1
    30     4    26    1
    31     5    27    1
    32     7    28    1
    33    10    29    1
    34    14    30    1
    35    15    31    1
    36    15    32    1
    37    16    33    1
    38    16    34    1
    39    17    35    1
    40    17    36    1
    41    19    37    1
    42    19    38    1
    43    20    39    1
    44    20    40    1
    45    21    41    1
    46    21    42    1
    47    22    43    1
    48    23    44    1
