@<TRIPOS>MOLECULE
*****
 35 39 0 0 0
SMALL
GASTEIGER

@<TRIPOS>ATOM
      1 O           6.0941   -1.5375    0.5447 O.2     1  UNL1       -0.2872
      2 C           5.5021   -0.5216    0.1986 C.ar    1  UNL1        0.1894
      3 C           6.2574    0.6965   -0.1862 C.ar    1  UNL1        0.0017
      4 C           5.5662    1.7797   -0.5565 C.ar    1  UNL1        0.0058
      5 N           4.2010    1.8457   -0.6064 N.ar    1  UNL1       -0.3604
      6 C           3.4097    0.7411   -0.2596 C.ar    1  UNL1        0.0507
      7 C           2.0116    0.8069   -0.3101 C.ar    1  UNL1       -0.0286
      8 C           1.2098   -0.2976    0.0365 C.ar    1  UNL1        0.0003
      9 C          -0.2598   -0.1956   -0.0274 C.ar    1  UNL1        0.0475
     10 C          -1.0789    0.8652   -0.3928 C.ar    1  UNL1       -0.0287
     11 C          -2.4388    0.4643   -0.2891 C.ar    1  UNL1        0.0010
     12 C          -3.6720    1.0984   -0.5229 C.ar    1  UNL1       -0.0418
     13 C          -4.8742    0.4066   -0.3203 C.ar    1  UNL1        0.0208
     14 C          -6.2576    0.6991   -0.4449 C.ar    1  UNL1       -0.0161
     15 C          -6.9313   -0.4457   -0.0827 C.ar    1  UNL1        0.0931
     16 O          -6.0575   -1.4296    0.2586 O.2     1  UNL1       -0.4629
     17 C          -4.8085   -0.9107    0.1139 C.ar    1  UNL1        0.1368
     18 C          -3.6119   -1.5677    0.3544 C.ar    1  UNL1        0.0051
     19 C          -2.4315   -0.8571    0.1452 C.ar    1  UNL1        0.0505
     20 N          -1.1178   -1.2298    0.2948 N.ar    1  UNL1       -0.3540
     21 C           1.8526   -1.4813    0.4388 C.ar    1  UNL1       -0.0518
     22 C           3.2477   -1.5636    0.4946 C.ar    1  UNL1       -0.0483
     23 C           4.0185   -0.4554    0.1463 C.ar    1  UNL1        0.0450
     24 H           7.3368    0.6549   -0.1502 H       1  UNL1        0.0670
     25 H           6.0710    2.6966   -0.8474 H       1  UNL1        0.0808
     26 H           3.7567    2.7076   -0.8986 H       1  UNL1        0.1653
     27 H           1.5479    1.7369   -0.6253 H       1  UNL1        0.0645
     28 H          -0.7446    1.8445   -0.7077 H       1  UNL1        0.0645
     29 H          -3.6916    2.1301   -0.8623 H       1  UNL1        0.0631
     30 H          -6.7077    1.6293   -0.7599 H       1  UNL1        0.0655
     31 H          -7.9775   -0.7099   -0.0174 H       1  UNL1        0.1029
     32 H          -3.6079   -2.5979    0.6930 H       1  UNL1        0.0675
     33 H          -0.8332   -2.1472    0.6021 H       1  UNL1        0.1659
     34 H           1.2908   -2.3673    0.7184 H       1  UNL1        0.0624
     35 H           3.7283   -2.4877    0.8083 H       1  UNL1        0.0625
@<TRIPOS>BOND
     1     1     2    2
     2     2     3   ar
     3     3     4   ar
     4     4     5   ar
     5     5     6   ar
     6     6     7   ar
     7     7     8   ar
     8     8     9    1
     9     9    10   ar
    10    10    11   ar
    11    11    12   ar
    12    12    13   ar
    13    13    14   ar
    14    14    15   ar
    15    15    16   ar
    16    16    17   ar
    17    17    18   ar
    18    18    19   ar
    19    19    20   ar
    20     8    21   ar
    21    21    22   ar
    22    22    23   ar
    23    23     2   ar
    24    23     6   ar
    25    20     9   ar
    26    19    11   ar
    27    17    13   ar
    28     3    24    1
    29     4    25    1
    30     5    26    1
    31     7    27    1
    32    10    28    1
    33    12    29    1
    34    14    30    1
    35    15    31    1
    36    18    32    1
    37    20    33    1
    38    21    34    1
    39    22    35    1
