@<TRIPOS>MOLECULE
*****
 34 38 0 0 0
SMALL
GASTEIGER

@<TRIPOS>ATOM
      1 O          -5.5748    2.6203    0.4407 O.2     1  UNL1       -0.2872
      2 C          -5.2217    1.4524    0.3250 C.ar    1  UNL1        0.1894
      3 C          -6.2287    0.3633    0.2823 C.ar    1  UNL1        0.0017
      4 C          -5.7961   -0.8956    0.1550 C.ar    1  UNL1        0.0058
      5 N          -4.4799   -1.2554    0.0604 N.ar    1  UNL1       -0.3604
      6 C          -3.4620   -0.2911    0.0919 C.ar    1  UNL1        0.0508
      7 C          -2.1144   -0.6590   -0.0050 C.ar    1  UNL1       -0.0270
      8 C          -1.0925    0.3074    0.0265 C.ar    1  UNL1        0.0193
      9 C           0.3105   -0.0937   -0.0759 C.ar    1  UNL1        0.1363
     10 C           0.9640   -1.3063   -0.2101 C.ar    1  UNL1       -0.0080
     11 C           2.3550   -1.0276   -0.2546 C.ar    1  UNL1        0.0243
     12 C           3.5332   -1.7752   -0.3753 C.ar    1  UNL1       -0.0080
     13 C           4.7482   -1.0982   -0.3776 C.ar    1  UNL1        0.1356
     14 O           5.9808   -1.6640   -0.4856 O.2     1  UNL1       -0.4629
     15 C           6.8841   -0.6490   -0.4442 C.ar    1  UNL1        0.0931
     16 C           6.2474    0.5644   -0.3108 C.ar    1  UNL1       -0.0160
     17 C           4.8571    0.2844   -0.2664 C.ar    1  UNL1        0.0236
     18 C           3.6779    1.0307   -0.1458 C.ar    1  UNL1       -0.0080
     19 C           2.4637    0.3525   -0.1436 C.ar    1  UNL1        0.1365
     20 O           1.2328    0.9173   -0.0358 O.2     1  UNL1       -0.4548
     21 C          -1.4523    1.6597    0.1581 C.ar    1  UNL1       -0.0503
     22 C          -2.7922    2.0433    0.2560 C.ar    1  UNL1       -0.0483
     23 C          -3.7894    1.0686    0.2226 C.ar    1  UNL1        0.0450
     24 H          -7.2718    0.6363    0.3563 H       1  UNL1        0.0670
     25 H          -6.4931   -1.7281    0.1189 H       1  UNL1        0.0808
     26 H          -4.2416   -2.2350   -0.0342 H       1  UNL1        0.1653
     27 H          -1.8637   -1.7112   -0.1060 H       1  UNL1        0.0645
     28 H           0.5002   -2.2799   -0.2695 H       1  UNL1        0.0661
     29 H           3.5098   -2.8561   -0.4652 H       1  UNL1        0.0661
     30 H           7.9210   -0.9459   -0.5199 H       1  UNL1        0.1029
     31 H           6.7269    1.5311   -0.2527 H       1  UNL1        0.0655
     32 H           3.7017    2.1116   -0.0558 H       1  UNL1        0.0661
     33 H          -0.6872    2.4339    0.1860 H       1  UNL1        0.0625
     34 H          -3.0528    3.0943    0.3574 H       1  UNL1        0.0625
@<TRIPOS>BOND
     1     1     2    2
     2     2     3   ar
     3     3     4   ar
     4     4     5   ar
     5     5     6   ar
     6     6     7   ar
     7     7     8   ar
     8     8     9    1
     9     9    10   ar
    10    10    11   ar
    11    11    12   ar
    12    12    13   ar
    13    13    14   ar
    14    14    15   ar
    15    15    16   ar
    16    16    17   ar
    17    17    18   ar
    18    18    19   ar
    19    19    20   ar
    20     8    21   ar
    21    21    22   ar
    22    22    23   ar
    23    23     2   ar
    24    23     6   ar
    25    20     9   ar
    26    19    11   ar
    27    17    13   ar
    28     3    24    1
    29     4    25    1
    30     5    26    1
    31     7    27    1
    32    10    28    1
    33    12    29    1
    34    15    30    1
    35    16    31    1
    36    18    32    1
    37    21    33    1
    38    22    34    1
