@<TRIPOS>MOLECULE
*****
 32 35 0 0 0
SMALL
GASTEIGER

@<TRIPOS>ATOM
      1 O           5.3584    1.6867    0.3696 O.2     1  UNL1       -0.2872
      2 C           4.7782    0.6159    0.2308 C.ar    1  UNL1        0.1894
      3 C           5.5481   -0.6400    0.0526 C.ar    1  UNL1        0.0017
      4 C           4.8705   -1.7808   -0.1139 C.ar    1  UNL1        0.0058
      5 N           3.5058   -1.8733   -0.1464 N.ar    1  UNL1       -0.3604
      6 C           2.7016   -0.7439    0.0693 C.ar    1  UNL1        0.0507
      7 C           1.3060   -0.8384    0.0584 C.ar    1  UNL1       -0.0286
      8 C           0.5033    0.3013    0.2343 C.ar    1  UNL1        0.0003
      9 C          -0.9551    0.1791    0.2232 C.ar    1  UNL1        0.0475
     10 C          -1.7798   -0.8269    0.6982 C.ar    1  UNL1       -0.0287
     11 C          -3.1304   -0.4720    0.4309 C.ar    1  UNL1        0.0003
     12 C          -4.3735   -1.0837    0.6812 C.ar    1  UNL1       -0.0526
     13 C          -5.5470   -0.4417    0.2685 C.ar    1  UNL1       -0.0611
     14 C          -5.4924    0.7886   -0.3835 C.ar    1  UNL1       -0.0598
     15 C          -4.2688    1.4141   -0.6419 C.ar    1  UNL1       -0.0378
     16 C          -3.1063    0.7583   -0.2203 C.ar    1  UNL1        0.0469
     17 N          -1.7859    1.1265   -0.3356 N.ar    1  UNL1       -0.3541
     18 C           1.1206    1.5477    0.4212 C.ar    1  UNL1       -0.0518
     19 C           2.5128    1.6598    0.4213 C.ar    1  UNL1       -0.0483
     20 C           3.2953    0.5179    0.2395 C.ar    1  UNL1        0.0450
     21 H           6.6270   -0.5786    0.0703 H       1  UNL1        0.0670
     22 H           5.3870   -2.7282   -0.2395 H       1  UNL1        0.0808
     23 H           3.0767   -2.7912   -0.1403 H       1  UNL1        0.1653
     24 H           0.8370   -1.8059   -0.1020 H       1  UNL1        0.0645
     25 H          -1.4492   -1.7266    1.2003 H       1  UNL1        0.0645
     26 H          -4.4242   -2.0424    1.1882 H       1  UNL1        0.0624
     27 H          -6.5096   -0.9097    0.4594 H       1  UNL1        0.0618
     28 H          -6.4156    1.2710   -0.6966 H       1  UNL1        0.0618
     29 H          -4.2300    2.3722   -1.1495 H       1  UNL1        0.0638
     30 H          -1.4713    1.9709   -0.7906 H       1  UNL1        0.1659
     31 H           0.5275    2.4440    0.5871 H       1  UNL1        0.0624
     32 H           2.9834    2.6294    0.5665 H       1  UNL1        0.0625
@<TRIPOS>BOND
     1     1     2    2
     2     2     3   ar
     3     3     4   ar
     4     4     5   ar
     5     5     6   ar
     6     6     7   ar
     7     7     8   ar
     8     8     9    1
     9     9    10   ar
    10    10    11   ar
    11    11    12   ar
    12    12    13   ar
    13    13    14   ar
    14    14    15   ar
    15    15    16   ar
    16    16    17   ar
    17     8    18   ar
    18    18    19   ar
    19    19    20   ar
    20    20     2   ar
    21    20     6   ar
    22    17     9   ar
    23    16    11   ar
    24     3    21    1
    25     4    22    1
    26     5    23    1
    27     7    24    1
    28    10    25    1
    29    12    26    1
    30    13    27    1
    31    14    28    1
    32    15    29    1
    33    17    30    1
    34    18    31    1
    35    19    32    1
