@<TRIPOS>MOLECULE
*****
 31 34 0 0 0
SMALL
GASTEIGER

@<TRIPOS>ATOM
      1 O           5.0855    2.4572    0.1132 O.2     1  UNL1       -0.2872
      2 C           4.6796    1.3010    0.0862 C.ar    1  UNL1        0.1894
      3 C           5.6367    0.1672    0.0582 C.ar    1  UNL1        0.0017
      4 C           5.1448   -1.0761    0.0292 C.ar    1  UNL1        0.0058
      5 N           3.8113   -1.3796    0.0236 N.ar    1  UNL1       -0.3604
      6 C           2.8384   -0.3696    0.0487 C.ar    1  UNL1        0.0507
      7 C           1.4717   -0.6813    0.0429 C.ar    1  UNL1       -0.0295
      8 C           0.4813    0.3229    0.0680 C.ar    1  UNL1       -0.0093
      9 C          -0.9725    0.0123    0.0623 C.ar    1  UNL1        0.0205
     10 C          -2.0506    0.8831    0.0842 C.ar    1  UNL1       -0.0392
     11 C          -3.3341    0.2393    0.0705 C.ar    1  UNL1       -0.0102
     12 C          -4.6399    0.7862    0.0850 C.ar    1  UNL1       -0.0535
     13 C          -5.7581   -0.0529    0.0664 C.ar    1  UNL1       -0.0611
     14 C          -5.5981   -1.4310    0.0335 C.ar    1  UNL1       -0.0607
     15 C          -4.3212   -1.9969    0.0185 C.ar    1  UNL1       -0.0474
     16 C          -3.1987   -1.1461    0.0374 C.ar    1  UNL1        0.0199
     17 S          -1.5468   -1.6076    0.0245 S.2     1  UNL1       -0.0882
     18 C           0.9165    1.6623    0.0993 C.ar    1  UNL1       -0.0527
     19 C           2.2762    1.9916    0.1055 C.ar    1  UNL1       -0.0484
     20 C           3.2296    0.9764    0.0802 C.ar    1  UNL1        0.0450
     21 H           6.6929    0.3963    0.0624 H       1  UNL1        0.0670
     22 H           5.8022   -1.9407    0.0079 H       1  UNL1        0.0808
     23 H           3.5241   -2.3507    0.0008 H       1  UNL1        0.1653
     24 H           1.1924   -1.7308    0.0183 H       1  UNL1        0.0644
     25 H          -1.9501    1.9603    0.1097 H       1  UNL1        0.0635
     26 H          -4.7772    1.8643    0.1108 H       1  UNL1        0.0624
     27 H          -6.7562    0.3785    0.0778 H       1  UNL1        0.0618
     28 H          -6.4723   -2.0779    0.0192 H       1  UNL1        0.0618
     29 H          -4.1980   -3.0758   -0.0072 H       1  UNL1        0.0629
     30 H           0.2053    2.4840    0.1196 H       1  UNL1        0.0624
     31 H           2.5853    3.0342    0.1299 H       1  UNL1        0.0625
@<TRIPOS>BOND
     1     1     2    2
     2     2     3   ar
     3     3     4   ar
     4     4     5   ar
     5     5     6   ar
     6     6     7   ar
     7     7     8   ar
     8     8     9    1
     9     9    10   ar
    10    10    11   ar
    11    11    12   ar
    12    12    13   ar
    13    13    14   ar
    14    14    15   ar
    15    15    16   ar
    16    16    17   ar
    17     8    18   ar
    18    18    19   ar
    19    19    20   ar
    20    20     2   ar
    21    20     6   ar
    22    17     9   ar
    23    16    11   ar
    24     3    21    1
    25     4    22    1
    26     5    23    1
    27     7    24    1
    28    10    25    1
    29    12    26    1
    30    13    27    1
    31    14    28    1
    32    15    29    1
    33    18    30    1
    34    19    31    1
