@<TRIPOS>MOLECULE
*****
 33 37 0 0 0
SMALL
GASTEIGER

@<TRIPOS>ATOM
      1 O          -5.5378   -0.3029   -2.5685 O.2     1  UNL1       -0.2872
      2 C          -5.1025   -0.0798   -1.4446 C.ar    1  UNL1        0.1894
      3 C          -6.0284    0.1986   -0.3190 C.ar    1  UNL1        0.0017
      4 C          -5.5043    0.4359    0.8882 C.ar    1  UNL1        0.0058
      5 N          -4.1642    0.4403    1.1619 N.ar    1  UNL1       -0.3604
      6 C          -3.2194    0.1870    0.1572 C.ar    1  UNL1        0.0507
      7 C          -1.8468    0.1911    0.4356 C.ar    1  UNL1       -0.0286
      8 C          -0.8922   -0.0623   -0.5680 C.ar    1  UNL1        0.0004
      9 C           0.5457   -0.0507   -0.2426 C.ar    1  UNL1        0.0502
     10 C           1.1995    0.1819    0.9676 C.ar    1  UNL1       -0.0087
     11 C           2.5910    0.0802    0.7551 C.ar    1  UNL1        0.1089
     12 N           3.6458    0.2188    1.6017 N.ar    1  UNL1       -0.2387
     13 C           4.8661    0.0459    1.0243 C.ar    1  UNL1        0.1293
     14 C           6.1726    0.1059    1.5511 C.ar    1  UNL1        0.0039
     15 C           7.0179   -0.1547    0.4934 C.ar    1  UNL1        0.0966
     16 O           6.3153   -0.3720   -0.6541 O.2     1  UNL1       -0.4439
     17 C           4.9983   -0.2499   -0.3323 C.ar    1  UNL1        0.2478
     18 N           3.9680   -0.3923   -1.1917 N.ar    1  UNL1       -0.1914
     19 C           2.7768   -0.2146   -0.5867 C.ar    1  UNL1        0.1609
     20 N           1.5469   -0.2902   -1.1720 N.ar    1  UNL1       -0.3377
     21 C          -1.3529   -0.3225   -1.8702 C.ar    1  UNL1       -0.0518
     22 C          -2.7202   -0.3302   -2.1646 C.ar    1  UNL1       -0.0483
     23 C          -3.6454   -0.0763   -1.1529 C.ar    1  UNL1        0.0450
     24 H          -7.0896    0.1975   -0.5245 H       1  UNL1        0.0670
     25 H          -6.1384    0.6450    1.7452 H       1  UNL1        0.0808
     26 H          -3.8529    0.6300    2.1069 H       1  UNL1        0.1653
     27 H          -1.5264    0.3960    1.4530 H       1  UNL1        0.0645
     28 H           0.7337    0.4041    1.9172 H       1  UNL1        0.0661
     29 H           6.4591    0.3127    2.5710 H       1  UNL1        0.0671
     30 H           8.0931   -0.2193    0.3949 H       1  UNL1        0.1031
     31 H           1.4189   -0.4946   -2.1508 H       1  UNL1        0.1674
     32 H          -0.6678   -0.5253   -2.6881 H       1  UNL1        0.0624
     33 H          -3.0598   -0.5335   -3.1780 H       1  UNL1        0.0625
@<TRIPOS>BOND
     1     1     2    2
     2     2     3   ar
     3     3     4   ar
     4     4     5   ar
     5     5     6   ar
     6     6     7   ar
     7     7     8   ar
     8     8     9    1
     9     9    10   ar
    10    10    11   ar
    11    11    12   ar
    12    12    13   ar
    13    13    14   ar
    14    14    15   ar
    15    15    16   ar
    16    16    17   ar
    17    17    18   ar
    18    18    19   ar
    19    19    20   ar
    20     8    21   ar
    21    21    22   ar
    22    22    23   ar
    23    23     2   ar
    24    23     6   ar
    25    20     9   ar
    26    19    11   ar
    27    17    13   ar
    28     3    24    1
    29     4    25    1
    30     5    26    1
    31     7    27    1
    32    10    28    1
    33    14    29    1
    34    15    30    1
    35    20    31    1
    36    21    32    1
    37    22    33    1
