@<TRIPOS>MOLECULE
*****
 30 33 0 0 0
SMALL
GASTEIGER

@<TRIPOS>ATOM
      1 O          -4.7666   -1.9449   -0.4122 O.2     1  UNL1       -0.2872
      2 C          -4.2346   -0.8416   -0.3692 C.ar    1  UNL1        0.1894
      3 C          -5.0489    0.3916   -0.5023 C.ar    1  UNL1        0.0017
      4 C          -4.4273    1.5731   -0.4274 C.ar    1  UNL1        0.0058
      5 N          -3.0842    1.7311   -0.2155 N.ar    1  UNL1       -0.3604
      6 C          -2.2326    0.6173   -0.1466 C.ar    1  UNL1        0.0507
      7 C          -0.8552    0.7741    0.0434 C.ar    1  UNL1       -0.0300
      8 C          -0.0020   -0.3410    0.1538 C.ar    1  UNL1       -0.0158
      9 C           1.4472   -0.1647    0.3452 C.ar    1  UNL1       -0.0156
     10 C           1.9420    0.5765    1.4372 C.ar    1  UNL1       -0.0519
     11 C           3.3141    0.7680    1.6579 C.ar    1  UNL1       -0.0342
     12 C           4.1736    0.1820    0.7312 C.ar    1  UNL1        0.0858
     13 N           5.5335    0.1411    0.6051 N.ar    1  UNL1       -0.2571
     14 N           5.9167   -0.5588   -0.4750 N.ar    1  UNL1       -0.0673
     15 N           4.8165   -0.9938   -1.0773 N.ar    1  UNL1       -0.1297
     16 C           3.7363   -0.5556   -0.3588 C.ar    1  UNL1        0.1130
     17 C           2.3612   -0.7376   -0.5623 C.ar    1  UNL1       -0.0247
     18 C          -0.5662   -1.6270    0.0810 C.ar    1  UNL1       -0.0532
     19 C          -1.9416   -1.8004   -0.0879 C.ar    1  UNL1       -0.0484
     20 C          -2.7678   -0.6805   -0.1940 C.ar    1  UNL1        0.0450
     21 H          -6.1120    0.2804   -0.6625 H       1  UNL1        0.0670
     22 H          -4.9768    2.5045   -0.5315 H       1  UNL1        0.0808
     23 H          -2.6771    2.6491   -0.3519 H       1  UNL1        0.1653
     24 H          -0.4340    1.7755    0.0965 H       1  UNL1        0.0644
     25 H           1.2416    1.0106    2.1512 H       1  UNL1        0.0624
     26 H           3.6755    1.3374    2.5072 H       1  UNL1        0.0639
     27 H           6.2446    0.5531    1.1960 H       1  UNL1        0.1907
     28 H           2.0226   -1.3090   -1.4208 H       1  UNL1        0.0646
     29 H           0.0660   -2.5091    0.1717 H       1  UNL1        0.0624
     30 H          -2.3646   -2.8014   -0.1320 H       1  UNL1        0.0625
@<TRIPOS>BOND
     1     1     2    2
     2     2     3   ar
     3     3     4   ar
     4     4     5   ar
     5     5     6   ar
     6     6     7   ar
     7     7     8   ar
     8     8     9    1
     9     9    10   ar
    10    10    11   ar
    11    11    12   ar
    12    12    13   ar
    13    13    14   ar
    14    14    15   ar
    15    15    16   ar
    16    16    17   ar
    17     8    18   ar
    18    18    19   ar
    19    19    20   ar
    20    20     2   ar
    21    20     6   ar
    22    17     9   ar
    23    16    12   ar
    24     3    21    1
    25     4    22    1
    26     5    23    1
    27     7    24    1
    28    10    25    1
    29    11    26    1
    30    13    27    1
    31    17    28    1
    32    18    29    1
    33    19    30    1
