@<TRIPOS>MOLECULE
*****
 40 44 0 0 0
SMALL
GASTEIGER

@<TRIPOS>ATOM
      1 O           6.8027   -1.5697   -1.0737 O.2     1  UNL1       -0.2872
      2 C           6.1574   -0.5857   -0.7313 C.ar    1  UNL1        0.1894
      3 C           6.8265    0.7254   -0.5451 C.ar    1  UNL1        0.0017
      4 C           6.0772    1.7753   -0.1923 C.ar    1  UNL1        0.0058
      5 N           4.7215    1.7341   -0.0077 N.ar    1  UNL1       -0.3604
      6 C           4.0221    0.5202   -0.0958 C.ar    1  UNL1        0.0507
      7 C           2.6405    0.4674    0.1187 C.ar    1  UNL1       -0.0300
      8 C           1.9280   -0.7406   -0.0094 C.ar    1  UNL1       -0.0158
      9 C           0.4767   -0.7860    0.2264 C.ar    1  UNL1       -0.0158
     10 C          -0.0663   -1.6355    1.2049 C.ar    1  UNL1       -0.0532
     11 C          -1.4419   -1.6684    1.4426 C.ar    1  UNL1       -0.0484
     12 C          -2.2926   -0.8542    0.6918 C.ar    1  UNL1        0.0456
     13 C          -3.7567   -0.8725    0.9374 C.ar    1  UNL1        0.1971
     14 O          -4.2346   -1.5892    1.8110 O.2     1  UNL1       -0.2865
     15 C          -4.6296   -0.0115    0.1006 C.ar    1  UNL1        0.0456
     16 C          -6.0157   -0.0183    0.2887 C.ar    1  UNL1       -0.0489
     17 C          -6.8224    0.7993   -0.5013 C.ar    1  UNL1       -0.0610
     18 C          -6.2445    1.6228   -1.4681 C.ar    1  UNL1       -0.0598
     19 C          -4.8585    1.6280   -1.6536 C.ar    1  UNL1       -0.0377
     20 C          -4.0390    0.7959   -0.8847 C.ar    1  UNL1        0.0506
     21 N          -2.6419    0.8365   -1.0248 N.ar    1  UNL1       -0.3539
     22 C          -1.7841   -0.0165   -0.3108 C.ar    1  UNL1        0.0511
     23 C          -0.4001    0.0250   -0.5192 C.ar    1  UNL1       -0.0299
     24 C           2.6337   -1.9013   -0.3720 C.ar    1  UNL1       -0.0532
     25 C           4.0091   -1.8610   -0.6101 C.ar    1  UNL1       -0.0484
     26 C           4.6946   -0.6523   -0.4780 C.ar    1  UNL1        0.0450
     27 H           7.8959    0.7731   -0.6953 H       1  UNL1        0.0670
     28 H           6.5216    2.7535   -0.0308 H       1  UNL1        0.0808
     29 H           4.2695    2.5262    0.4346 H       1  UNL1        0.1653
     30 H           2.1085    1.3736    0.4001 H       1  UNL1        0.0644
     31 H           0.5853   -2.2688    1.8049 H       1  UNL1        0.0624
     32 H          -1.8460   -2.3217    2.2129 H       1  UNL1        0.0625
     33 H          -6.4626   -0.6548    1.0491 H       1  UNL1        0.0625
     34 H          -7.9003    0.7991   -0.3579 H       1  UNL1        0.0618
     35 H          -6.8749    2.2683   -2.0754 H       1  UNL1        0.0618
     36 H          -4.4281    2.2892   -2.4008 H       1  UNL1        0.0638
     37 H          -2.2859    1.2184   -1.8922 H       1  UNL1        0.1659
     38 H           0.0061    0.6899   -1.2786 H       1  UNL1        0.0644
     39 H           2.1087   -2.8484   -0.4870 H       1  UNL1        0.0624
     40 H           4.5401   -2.7648   -0.9003 H       1  UNL1        0.0625
@<TRIPOS>BOND
     1     1     2    2
     2     2     3   ar
     3     3     4   ar
     4     4     5   ar
     5     5     6   ar
     6     6     7   ar
     7     7     8   ar
     8     8     9    1
     9     9    10   ar
    10    10    11   ar
    11    11    12   ar
    12    12    13   ar
    13    13    14    2
    14    13    15   ar
    15    15    16   ar
    16    16    17   ar
    17    17    18   ar
    18    18    19   ar
    19    19    20   ar
    20    20    21   ar
    21    21    22   ar
    22    22    23   ar
    23     8    24   ar
    24    24    25   ar
    25    25    26   ar
    26    26     2   ar
    27    26     6   ar
    28    23     9   ar
    29    22    12   ar
    30    20    15   ar
    31     3    27    1
    32     4    28    1
    33     5    29    1
    34     7    30    1
    35    10    31    1
    36    11    32    1
    37    16    33    1
    38    17    34    1
    39    18    35    1
    40    19    36    1
    41    21    37    1
    42    23    38    1
    43    24    39    1
    44    25    40    1
