@<TRIPOS>MOLECULE
*****
 44 48 0 0 0
SMALL
GASTEIGER

@<TRIPOS>ATOM
      1 O          -7.1120   -1.7345   -0.0516 O.2     1  UNL1       -0.2872
      2 C          -6.6032   -0.6808    0.3135 C.ar    1  UNL1        0.1894
      3 C          -7.4340    0.3788    0.9370 C.ar    1  UNL1        0.0017
      4 C          -6.8379    1.5180    1.3047 C.ar    1  UNL1        0.0058
      5 N          -5.5078    1.7880    1.1302 N.ar    1  UNL1       -0.3604
      6 C          -4.6402    0.8185    0.6038 C.ar    1  UNL1        0.0507
      7 C          -3.2753    1.0820    0.4458 C.ar    1  UNL1       -0.0300
      8 C          -2.4071    0.1258   -0.1157 C.ar    1  UNL1       -0.0159
      9 C          -0.9718    0.4099   -0.2682 C.ar    1  UNL1       -0.0174
     10 C          -0.5261    1.5280   -0.9746 C.ar    1  UNL1       -0.0523
     11 C           0.8415    1.7888   -1.1065 C.ar    1  UNL1       -0.0397
     12 C           1.8199    0.9490   -0.5404 C.ar    1  UNL1        0.0346
     13 C           1.3844   -0.1860    0.1539 C.ar    1  UNL1       -0.0253
     14 C          -0.0011   -0.4337    0.2910 C.ar    1  UNL1       -0.0491
     15 C           2.3395   -1.1457    0.8141 C.3     1  UNL1       -0.0219
     16 C           3.4186   -1.6406   -0.1394 C.3     1  UNL1       -0.0219
     17 C           4.5764   -0.6834   -0.2449 C.ar    1  UNL1       -0.0259
     18 C           5.8784   -1.2025   -0.0812 C.ar    1  UNL1       -0.0568
     19 C           7.0014   -0.3848   -0.1794 C.ar    1  UNL1       -0.0614
     20 C           6.8409    0.9654   -0.4485 C.ar    1  UNL1       -0.0600
     21 C           5.5577    1.4856   -0.6255 C.ar    1  UNL1       -0.0403
     22 C           4.4051    0.6764   -0.5407 C.ar    1  UNL1        0.0345
     23 N           3.1643    1.3106   -0.7344 N.pl3   1  UNL1       -0.3141
     24 C          -2.9448   -1.1058   -0.5304 C.ar    1  UNL1       -0.0532
     25 C          -4.3081   -1.3775   -0.3964 C.ar    1  UNL1       -0.0484
     26 C          -5.1489   -0.4146    0.1637 C.ar    1  UNL1        0.0450
     27 H          -8.4875    0.1800    1.0740 H       1  UNL1        0.0670
     28 H          -7.3998    2.3196    1.7757 H       1  UNL1        0.0808
     29 H          -5.1130    2.6051    1.5811 H       1  UNL1        0.1653
     30 H          -2.8739    2.0389    0.7722 H       1  UNL1        0.0644
     31 H          -1.2385    2.2043   -1.4419 H       1  UNL1        0.0624
     32 H           1.1400    2.6691   -1.6717 H       1  UNL1        0.0636
     33 H          -0.3291   -1.3047    0.8580 H       1  UNL1        0.0627
     34 H           1.7813   -2.0245    1.1624 H       1  UNL1        0.0317
     35 H           2.7660   -0.6765    1.7098 H       1  UNL1        0.0317
     36 H           3.0202   -1.8420   -1.1419 H       1  UNL1        0.0317
     37 H           3.7827   -2.6015    0.2469 H       1  UNL1        0.0317
     38 H           6.0231   -2.2606    0.1285 H       1  UNL1        0.0621
     39 H           7.9950   -0.8031   -0.0448 H       1  UNL1        0.0618
     40 H           7.7078    1.6158   -0.5229 H       1  UNL1        0.0618
     41 H           5.4624    2.5491   -0.8327 H       1  UNL1        0.0636
     42 H           3.2650    2.2416   -1.1226 H       1  UNL1        0.1522
     43 H          -2.3006   -1.8603   -0.9791 H       1  UNL1        0.0624
     44 H          -4.7105   -2.3309   -0.7309 H       1  UNL1        0.0625
@<TRIPOS>BOND
     1     1     2    2
     2     2     3   ar
     3     3     4   ar
     4     4     5   ar
     5     5     6   ar
     6     6     7   ar
     7     7     8   ar
     8     8     9    1
     9     9    10   ar
    10    10    11   ar
    11    11    12   ar
    12    12    13   ar
    13    13    14   ar
    14    13    15    1
    15    15    16    1
    16    16    17    1
    17    17    18   ar
    18    18    19   ar
    19    19    20   ar
    20    20    21   ar
    21    21    22   ar
    22    22    23    1
    23     8    24   ar
    24    24    25   ar
    25    25    26   ar
    26    26     2   ar
    27    26     6   ar
    28    14     9   ar
    29    22    17   ar
    30    23    12    1
    31     3    27    1
    32     4    28    1
    33     5    29    1
    34     7    30    1
    35    10    31    1
    36    11    32    1
    37    14    33    1
    38    15    34    1
    39    15    35    1
    40    16    36    1
    41    16    37    1
    42    18    38    1
    43    19    39    1
    44    20    40    1
    45    21    41    1
    46    23    42    1
    47    24    43    1
    48    25    44    1
