@<TRIPOS>MOLECULE
*****
 39 43 0 0 0
SMALL
GASTEIGER

@<TRIPOS>ATOM
      1 O          -6.0048   -2.4836    1.8051 O.2     1  UNL1       -0.2872
      2 C          -5.6709   -1.9741    0.7415 C.ar    1  UNL1        0.1894
      3 C          -6.5847   -2.0054   -0.4274 C.ar    1  UNL1        0.0017
      4 C          -6.1714   -1.4477   -1.5704 C.ar    1  UNL1        0.0058
      5 N          -4.9518   -0.8532   -1.7446 N.ar    1  UNL1       -0.3604
      6 C          -4.0430   -0.7452   -0.6819 C.ar    1  UNL1        0.0507
      7 C          -2.8009   -0.1248   -0.8537 C.ar    1  UNL1       -0.0300
      8 C          -1.8749   -0.0401    0.2041 C.ar    1  UNL1       -0.0158
      9 C          -0.5723    0.6163    0.0123 C.ar    1  UNL1       -0.0160
     10 C          -0.4906    1.9430   -0.4277 C.ar    1  UNL1       -0.0529
     11 C           0.7497    2.5569   -0.6197 C.ar    1  UNL1       -0.0456
     12 C           1.9395    1.8601   -0.3716 C.ar    1  UNL1        0.0339
     13 C           1.8844    0.5361    0.0898 C.ar    1  UNL1        0.0458
     14 C           0.6277   -0.0726    0.2597 C.ar    1  UNL1       -0.0317
     15 N           3.0430   -0.2297    0.3121 N.pl3   1  UNL1       -0.3127
     16 C           4.3731    0.2214    0.2405 C.ar    1  UNL1        0.0453
     17 C           5.4095   -0.6750    0.5491 C.ar    1  UNL1       -0.0395
     18 C           6.7477   -0.2886    0.4541 C.ar    1  UNL1       -0.0599
     19 C           7.0693    0.9976    0.0347 C.ar    1  UNL1       -0.0606
     20 C           6.0522    1.8932   -0.2953 C.ar    1  UNL1       -0.0462
     21 C           4.7044    1.5129   -0.2030 C.ar    1  UNL1        0.0339
     22 S           3.4743    2.7235   -0.6590 S.3     1  UNL1       -0.0857
     23 C          -2.2220   -0.6008    1.4461 C.ar    1  UNL1       -0.0532
     24 C          -3.4543   -1.2311    1.6314 C.ar    1  UNL1       -0.0484
     25 C          -4.3558   -1.3039    0.5683 C.ar    1  UNL1        0.0450
     26 H          -7.5494   -2.4765   -0.3025 H       1  UNL1        0.0670
     27 H          -6.8048   -1.4392   -2.4530 H       1  UNL1        0.0808
     28 H          -4.7575   -0.3735   -2.6154 H       1  UNL1        0.1653
     29 H          -2.5395    0.2889   -1.8253 H       1  UNL1        0.0644
     30 H          -1.3957    2.5159   -0.6198 H       1  UNL1        0.0624
     31 H           0.7792    3.5877   -0.9665 H       1  UNL1        0.0629
     32 H           0.5815   -1.1118    0.5800 H       1  UNL1        0.0642
     33 H           2.9053   -1.0893    0.8272 H       1  UNL1        0.1522
     34 H           5.1801   -1.6890    0.8662 H       1  UNL1        0.0636
     35 H           7.5366   -0.9939    0.7026 H       1  UNL1        0.0618
     36 H           8.1094    1.3036   -0.0428 H       1  UNL1        0.0618
     37 H           6.3183    2.8933   -0.6303 H       1  UNL1        0.0629
     38 H          -1.5319   -0.5410    2.2862 H       1  UNL1        0.0624
     39 H          -3.7089   -1.6604    2.5977 H       1  UNL1        0.0625
@<TRIPOS>BOND
     1     1     2    2
     2     2     3   ar
     3     3     4   ar
     4     4     5   ar
     5     5     6   ar
     6     6     7   ar
     7     7     8   ar
     8     8     9    1
     9     9    10   ar
    10    10    11   ar
    11    11    12   ar
    12    12    13   ar
    13    13    14   ar
    14    13    15    1
    15    15    16    1
    16    16    17   ar
    17    17    18   ar
    18    18    19   ar
    19    19    20   ar
    20    20    21   ar
    21    21    22    1
    22     8    23   ar
    23    23    24   ar
    24    24    25   ar
    25    25     2   ar
    26    25     6   ar
    27    14     9   ar
    28    21    16   ar
    29    22    12    1
    30     3    26    1
    31     4    27    1
    32     5    28    1
    33     7    29    1
    34    10    30    1
    35    11    31    1
    36    14    32    1
    37    15    33    1
    38    17    34    1
    39    18    35    1
    40    19    36    1
    41    20    37    1
    42    23    38    1
    43    24    39    1
