@<TRIPOS>MOLECULE
*****
 30 34 0 0 0
SMALL
GASTEIGER

@<TRIPOS>ATOM
      1 SI          4.5052    1.0492    1.9910 Si      1  UNL1        0.0000
      2 C           5.5676    2.1013    0.7946 C.2     1  UNL1        0.0000
      3 C           4.9257    2.3525   -0.3672 C.2     1  UNL1        0.0000
      4 C           3.6248    1.7667   -0.3949 C.ar    1  UNL1        0.0000
      5 S           2.5000    1.8497   -1.6724 S.2     1  UNL1        0.0000
      6 C           1.3790    0.8954   -0.7412 C.ar    1  UNL1        0.0000
      7 C           0.0979    0.3431   -0.8217 C.ar    1  UNL1        0.0000
      8 SI         -1.3881    0.1642   -1.9017 Si      1  UNL1        0.0000
      9 C          -2.1963   -0.8846   -0.4426 C.2     1  UNL1        0.0000
     10 C          -1.3547   -0.9997    0.6156 C.2     1  UNL1        0.0000
     11 C          -0.1404   -0.3203    0.3572 C.ar    1  UNL1        0.0000
     12 N           0.9351   -0.2124    1.1790 N.ar    1  UNL1        0.0000
     13 C           1.8793    0.5417    0.5008 C.ar    1  UNL1        0.0000
     14 C           3.1695    1.0462    0.6912 C.ar    1  UNL1        0.0000
     15 C          -3.5008   -1.4321   -0.5536 C.ar    1  UNL1        0.0000
     16 C          -4.6390   -0.8916   -1.1343 C.ar    1  UNL1        0.0000
     17 C          -5.7742   -1.7512   -1.0645 C.ar    1  UNL1        0.0000
     18 C          -5.4818   -2.9342   -0.4302 C.ar    1  UNL1        0.0000
     19 S          -3.8548   -3.0023    0.0779 S.2     1  UNL1        0.0000
     20 H           5.1262   -0.2767    2.2329 H       1  UNL1        0.0000
     21 H           4.1638    1.8136    3.2163 H       1  UNL1        0.0000
     22 H           6.5569    2.4229    1.0784 H       1  UNL1        0.0000
     23 H           5.3356    2.9273   -1.1881 H       1  UNL1        0.0000
     24 H          -2.1685    1.4114   -2.1225 H       1  UNL1        0.0000
     25 H          -1.1957   -0.6834   -3.1077 H       1  UNL1        0.0000
     26 H          -1.5691   -1.5248    1.5374 H       1  UNL1        0.0000
     27 H           1.0665   -0.5903    2.1084 H       1  UNL1        0.0000
     28 H          -4.6691    0.0927   -1.5865 H       1  UNL1        0.0000
     29 H          -6.7540   -1.5099   -1.4575 H       1  UNL1        0.0000
     30 H          -6.1467   -3.7646   -0.2370 H       1  UNL1        0.0000
@<TRIPOS>BOND
     1     1     2    1
     2     2     3    2
     3     3     4    1
     4     4     5   ar
     5     5     6   ar
     6     6     7   ar
     7     7     8    1
     8     8     9    1
     9     9    10    2
    10    10    11    1
    11    11    12   ar
    12    12    13   ar
    13    13    14   ar
    14     9    15    1
    15    15    16   ar
    16    16    17   ar
    17    17    18   ar
    18    18    19   ar
    19    14     1    1
    20    19    15   ar
    21    14     4   ar
    22    13     6   ar
    23    11     7   ar
    24     1    20    1
    25     1    21    1
    26     2    22    1
    27     3    23    1
    28     8    24    1
    29     8    25    1
    30    10    26    1
    31    12    27    1
    32    16    28    1
    33    17    29    1
    34    18    30    1
