@<TRIPOS>MOLECULE
*****
 39 43 0 0 0
SMALL
GASTEIGER

@<TRIPOS>ATOM
      1 O           6.4678    1.1909    1.9309 O.2     1  UNL1       -0.2872
      2 C           5.9896    0.6471    0.9420 C.ar    1  UNL1        0.1894
      3 C           6.8730    0.1257   -0.1302 C.ar    1  UNL1        0.0017
      4 C           6.3071   -0.4791   -1.1800 C.ar    1  UNL1        0.0058
      5 N           4.9605   -0.6720   -1.3310 N.ar    1  UNL1       -0.3604
      6 C           4.0514   -0.1505   -0.3971 C.ar    1  UNL1        0.0507
      7 C           2.6723   -0.3219   -0.5608 C.ar    1  UNL1       -0.0300
      8 C           1.7571    0.1640    0.3933 C.ar    1  UNL1       -0.0158
      9 C           0.3084   -0.0146    0.2073 C.ar    1  UNL1       -0.0158
     10 C          -0.2443   -1.2787   -0.0016 C.ar    1  UNL1       -0.0533
     11 C          -1.6226   -1.4320   -0.1742 C.ar    1  UNL1       -0.0514
     12 C          -2.5031   -0.3234   -0.1458 C.ar    1  UNL1        0.0081
     13 C          -1.9405    0.9558    0.0655 C.ar    1  UNL1        0.0721
     14 C          -0.5671    1.0818    0.2357 C.ar    1  UNL1       -0.0280
     15 N          -2.6709    2.0765    0.1113 N.ar    1  UNL1       -0.2543
     16 C          -4.0061    1.9693   -0.0516 C.ar    1  UNL1        0.0360
     17 C          -4.6857    0.7765   -0.2653 C.ar    1  UNL1        0.0008
     18 C          -6.0838    0.7528   -0.4256 C.ar    1  UNL1       -0.0526
     19 C          -6.7538   -0.4483   -0.6389 C.ar    1  UNL1       -0.0611
     20 C          -6.0332   -1.6330   -0.6937 C.ar    1  UNL1       -0.0611
     21 C          -4.6434   -1.6149   -0.5350 C.ar    1  UNL1       -0.0534
     22 C          -3.9263   -0.4109   -0.3161 C.ar    1  UNL1       -0.0073
     23 C           2.2611    0.8204    1.5304 C.ar    1  UNL1       -0.0532
     24 C           3.6356    0.9816    1.7189 C.ar    1  UNL1       -0.0484
     25 C           4.5230    0.4909    0.7600 C.ar    1  UNL1        0.0450
     26 H           7.9390    0.2651   -0.0190 H       1  UNL1        0.0670
     27 H           6.9094   -0.8665   -1.9970 H       1  UNL1        0.0808
     28 H           4.6125   -0.9760   -2.2330 H       1  UNL1        0.1653
     29 H           2.2995   -0.8302   -1.4473 H       1  UNL1        0.0644
     30 H           0.3911   -2.1623   -0.0179 H       1  UNL1        0.0624
     31 H          -1.9975   -2.4398   -0.3280 H       1  UNL1        0.0624
     32 H          -0.1667    2.0836    0.3871 H       1  UNL1        0.0645
     33 H          -4.5357    2.9178   -0.0023 H       1  UNL1        0.0836
     34 H          -6.6595    1.6754   -0.3843 H       1  UNL1        0.0624
     35 H          -7.8336   -0.4580   -0.7614 H       1  UNL1        0.0618
     36 H          -6.5478   -2.5763   -0.8594 H       1  UNL1        0.0618
     37 H          -4.1268   -2.5695   -0.5858 H       1  UNL1        0.0624
     38 H           1.5802    1.2001    2.2909 H       1  UNL1        0.0624
     39 H           4.0097    1.4826    2.6087 H       1  UNL1        0.0625
@<TRIPOS>BOND
     1     1     2    2
     2     2     3   ar
     3     3     4   ar
     4     4     5   ar
     5     5     6   ar
     6     6     7   ar
     7     7     8   ar
     8     8     9    1
     9     9    10   ar
    10    10    11   ar
    11    11    12   ar
    12    12    13   ar
    13    13    14   ar
    14    13    15   ar
    15    15    16   ar
    16    16    17   ar
    17    17    18   ar
    18    18    19   ar
    19    19    20   ar
    20    20    21   ar
    21    21    22   ar
    22     8    23   ar
    23    23    24   ar
    24    24    25   ar
    25    25     2   ar
    26    25     6   ar
    27    14     9   ar
    28    22    17   ar
    29    22    12   ar
    30     3    26    1
    31     4    27    1
    32     5    28    1
    33     7    29    1
    34    10    30    1
    35    11    31    1
    36    14    32    1
    37    16    33    1
    38    18    34    1
    39    19    35    1
    40    20    36    1
    41    21    37    1
    42    23    38    1
    43    24    39    1
