@<TRIPOS>MOLECULE
*****
 38 42 0 0 0
SMALL
GASTEIGER

@<TRIPOS>ATOM
      1 O           6.6287    0.5002   -1.5134 O.2     1  UNL1       -0.2872
      2 C           5.9595    0.4423   -0.4880 C.ar    1  UNL1        0.1894
      3 C           6.5984    0.6281    0.8384 C.ar    1  UNL1        0.0017
      4 C           5.8302    0.5432    1.9297 C.ar    1  UNL1        0.0058
      5 N           4.4872    0.2834    1.9125 N.ar    1  UNL1       -0.3604
      6 C           3.7960    0.1388    0.7006 C.ar    1  UNL1        0.0507
      7 C           2.4193   -0.1105    0.6796 C.ar    1  UNL1       -0.0300
      8 C           1.7271   -0.2878   -0.5343 C.ar    1  UNL1       -0.0158
      9 C           0.2776   -0.5451   -0.5440 C.ar    1  UNL1       -0.0141
     10 C          -0.2527   -1.6706   -1.2008 C.ar    1  UNL1       -0.0503
     11 C          -1.6286   -1.9203   -1.2098 C.ar    1  UNL1       -0.0151
     12 C          -2.4932   -1.0441   -0.5609 C.ar    1  UNL1        0.1706
     13 C          -1.9881    0.0760    0.0936 C.ar    1  UNL1        0.1712
     14 C          -0.6147    0.3262    0.1040 C.ar    1  UNL1       -0.0079
     15 O          -2.7993    0.9706    0.7459 O.3     1  UNL1       -0.4486
     16 C          -4.1414    0.6866    0.7092 C.ar    1  UNL1        0.1706
     17 C          -5.0056    1.5681    1.3570 C.ar    1  UNL1       -0.0156
     18 C          -6.3799    1.3221    1.3480 C.ar    1  UNL1       -0.0581
     19 C          -6.8855    0.1972    0.6925 C.ar    1  UNL1       -0.0581
     20 C          -6.0180   -0.6840    0.0444 C.ar    1  UNL1       -0.0156
     21 C          -4.6462   -0.4362    0.0546 C.ar    1  UNL1        0.1706
     22 O          -3.8341   -1.3305   -0.5964 O.3     1  UNL1       -0.4486
     23 C           2.4543   -0.2168   -1.7360 C.ar    1  UNL1       -0.0532
     24 C           3.8307    0.0207   -1.7319 C.ar    1  UNL1       -0.0484
     25 C           4.4947    0.1929   -0.5166 C.ar    1  UNL1        0.0450
     26 H           7.6601    0.8290    0.8645 H       1  UNL1        0.0670
     27 H           6.2482    0.6785    2.9233 H       1  UNL1        0.0808
     28 H           3.9634    0.3453    2.7774 H       1  UNL1        0.1653
     29 H           1.8754   -0.1812    1.6191 H       1  UNL1        0.0644
     30 H           0.4101   -2.3724   -1.7045 H       1  UNL1        0.0625
     31 H          -2.0203   -2.7961   -1.7194 H       1  UNL1        0.0656
     32 H          -0.2450    1.2143    0.6114 H       1  UNL1        0.0662
     33 H          -4.6112    2.4429    1.8659 H       1  UNL1        0.0655
     34 H          -7.0571    2.0075    1.8517 H       1  UNL1        0.0619
     35 H          -7.9560    0.0074    0.6863 H       1  UNL1        0.0619
     36 H          -6.4100   -1.5590   -0.4662 H       1  UNL1        0.0655
     37 H           1.9469   -0.3386   -2.6917 H       1  UNL1        0.0624
     38 H           4.3791    0.0718   -2.6697 H       1  UNL1        0.0625
@<TRIPOS>BOND
     1     1     2    2
     2     2     3   ar
     3     3     4   ar
     4     4     5   ar
     5     5     6   ar
     6     6     7   ar
     7     7     8   ar
     8     8     9    1
     9     9    10   ar
    10    10    11   ar
    11    11    12   ar
    12    12    13   ar
    13    13    14   ar
    14    13    15    1
    15    15    16    1
    16    16    17   ar
    17    17    18   ar
    18    18    19   ar
    19    19    20   ar
    20    20    21   ar
    21    21    22    1
    22     8    23   ar
    23    23    24   ar
    24    24    25   ar
    25    25     2   ar
    26    25     6   ar
    27    14     9   ar
    28    21    16   ar
    29    22    12    1
    30     3    26    1
    31     4    27    1
    32     5    28    1
    33     7    29    1
    34    10    30    1
    35    11    31    1
    36    14    32    1
    37    17    33    1
    38    18    34    1
    39    19    35    1
    40    20    36    1
    41    23    37    1
    42    24    38    1
