@<TRIPOS>MOLECULE
*****
 37 41 0 0 0
SMALL
GASTEIGER

@<TRIPOS>ATOM
      1 O           5.0360   -0.1549   -2.0924 O.2     1  UNL1       -0.2872
      2 C           4.4883   -0.3536   -1.0141 C.ar    1  UNL1        0.1894
      3 C           5.1959   -1.0867    0.0648 C.ar    1  UNL1        0.0017
      4 C           4.5521   -1.2943    1.2184 C.ar    1  UNL1        0.0058
      5 N           3.2711   -0.8880    1.4741 N.ar    1  UNL1       -0.3604
      6 C           2.5492   -0.1436    0.5296 C.ar    1  UNL1        0.0507
      7 C           1.2469    0.2893    0.7953 C.ar    1  UNL1       -0.0299
      8 C           0.5092    0.9982   -0.1705 C.ar    1  UNL1       -0.0153
      9 C          -0.8497    1.4515    0.1216 C.ar    1  UNL1       -0.0081
     10 C          -1.0840    2.7600    0.5883 C.ar    1  UNL1       -0.0533
     11 C          -2.3700    3.2032    0.8823 C.ar    1  UNL1       -0.0592
     12 C          -3.4686    2.3594    0.7230 C.ar    1  UNL1       -0.0377
     13 C          -3.2326    1.0607    0.2560 C.ar    1  UNL1        0.0481
     14 N          -4.1277    0.0455    0.0144 N.ar    1  UNL1       -0.3529
     15 C          -3.4874   -1.0768   -0.4453 C.ar    1  UNL1        0.0658
     16 C          -3.9990   -2.3157   -0.8102 C.ar    1  UNL1        0.0514
     17 N          -3.1545   -3.2764   -1.2442 N.ar    1  UNL1       -0.2612
     18 C          -1.8350   -3.0007   -1.3150 C.ar    1  UNL1        0.0283
     19 C          -1.2608   -1.7873   -0.9659 C.ar    1  UNL1       -0.0338
     20 C          -2.1266   -0.7802   -0.5069 C.ar    1  UNL1        0.0109
     21 C          -1.9575    0.5776   -0.0542 C.ar    1  UNL1        0.0152
     22 C           1.1002    1.2694   -1.4154 C.ar    1  UNL1       -0.0532
     23 C           2.3954    0.8335   -1.6994 C.ar    1  UNL1       -0.0484
     24 C           3.1106    0.1262   -0.7304 C.ar    1  UNL1        0.0450
     25 H           6.2066   -1.4178   -0.1277 H       1  UNL1        0.0670
     26 H           5.0291   -1.8180    2.0421 H       1  UNL1        0.0808
     27 H           2.9089   -0.9712    2.4169 H       1  UNL1        0.1653
     28 H           0.7889    0.0717    1.7578 H       1  UNL1        0.0644
     29 H          -0.2453    3.4404    0.7255 H       1  UNL1        0.0624
     30 H          -2.5199    4.2189    1.2413 H       1  UNL1        0.0618
     31 H          -4.4709    2.7067    0.9539 H       1  UNL1        0.0638
     32 H          -5.1247    0.1204    0.1540 H       1  UNL1        0.1659
     33 H          -5.0516   -2.5673   -0.7701 H       1  UNL1        0.0851
     34 H          -1.2160   -3.8171   -1.6778 H       1  UNL1        0.0830
     35 H          -0.1919   -1.6406   -1.0542 H       1  UNL1        0.0639
     36 H           0.5441    1.8165   -2.1750 H       1  UNL1        0.0624
     37 H           2.8412    1.0413   -2.6693 H       1  UNL1        0.0625
@<TRIPOS>BOND
     1     1     2    2
     2     2     3   ar
     3     3     4   ar
     4     4     5   ar
     5     5     6   ar
     6     6     7   ar
     7     7     8   ar
     8     8     9    1
     9     9    10   ar
    10    10    11   ar
    11    11    12   ar
    12    12    13   ar
    13    13    14   ar
    14    14    15   ar
    15    15    16   ar
    16    16    17   ar
    17    17    18   ar
    18    18    19   ar
    19    19    20   ar
    20    20    21   ar
    21     8    22   ar
    22    22    23   ar
    23    23    24   ar
    24    24     2   ar
    25    24     6   ar
    26    21     9   ar
    27    21    13   ar
    28    20    15   ar
    29     3    25    1
    30     4    26    1
    31     5    27    1
    32     7    28    1
    33    10    29    1
    34    11    30    1
    35    12    31    1
    36    14    32    1
    37    16    33    1
    38    18    34    1
    39    19    35    1
    40    22    36    1
    41    23    37    1
