@<TRIPOS>MOLECULE
*****
 37 41 0 0 0
SMALL
GASTEIGER

@<TRIPOS>ATOM
      1 O           4.5858    2.4455    1.4393 O.2     1  UNL1       -0.2872
      2 C           4.2269    1.6153    0.6122 C.ar    1  UNL1        0.1894
      3 C           5.0712    1.3192   -0.5717 C.ar    1  UNL1        0.0017
      4 C           4.6302    0.4183   -1.4560 C.ar    1  UNL1        0.0058
      5 N           3.4388   -0.2468   -1.3552 N.ar    1  UNL1       -0.3604
      6 C           2.6055   -0.0668   -0.2415 C.ar    1  UNL1        0.0507
      7 C           1.3967   -0.7595   -0.1259 C.ar    1  UNL1       -0.0299
      8 C           0.5421   -0.5453    0.9711 C.ar    1  UNL1       -0.0152
      9 C          -0.7171   -1.2780    1.0828 C.ar    1  UNL1       -0.0065
     10 C          -0.8200   -2.4348    1.8844 C.ar    1  UNL1       -0.0532
     11 C          -2.0158   -3.1481    1.9871 C.ar    1  UNL1       -0.0577
     12 C          -3.1557   -2.7371    1.2950 C.ar    1  UNL1       -0.0187
     13 C          -3.0357   -1.5902    0.5122 C.ar    1  UNL1        0.1368
     14 O          -4.0432   -1.0508   -0.2249 O.2     1  UNL1       -0.4548
     15 C          -3.5428    0.0553   -0.8359 C.ar    1  UNL1        0.1363
     16 C          -4.2632    0.8962   -1.6824 C.ar    1  UNL1       -0.0187
     17 C          -3.5753    1.9911   -2.2130 C.ar    1  UNL1       -0.0582
     18 C          -2.2341    2.2180   -1.8998 C.ar    1  UNL1       -0.0610
     19 C          -1.5356    1.3528   -1.0448 C.ar    1  UNL1       -0.0504
     20 C          -2.2056    0.2389   -0.4991 C.ar    1  UNL1        0.0285
     21 C          -1.8678   -0.8424    0.3796 C.ar    1  UNL1        0.0356
     22 C           0.9190    0.3806    1.9573 C.ar    1  UNL1       -0.0532
     23 C           2.1169    1.0889    1.8492 C.ar    1  UNL1       -0.0484
     24 C           2.9503    0.8669    0.7507 C.ar    1  UNL1        0.0450
     25 H           6.0122    1.8428   -0.6651 H       1  UNL1        0.0670
     26 H           5.2151    0.1597   -2.3343 H       1  UNL1        0.0808
     27 H           3.2467   -1.0076   -1.9966 H       1  UNL1        0.1653
     28 H           1.1051   -1.4706   -0.8960 H       1  UNL1        0.0644
     29 H           0.0521   -2.7854    2.4349 H       1  UNL1        0.0624
     30 H          -2.0605   -4.0366    2.6133 H       1  UNL1        0.0619
     31 H          -4.0931   -3.2766    1.3599 H       1  UNL1        0.0654
     32 H          -5.3047    0.7058   -1.9110 H       1  UNL1        0.0654
     33 H          -4.0955    2.6777   -2.8776 H       1  UNL1        0.0619
     34 H          -1.7210    3.0798   -2.3220 H       1  UNL1        0.0618
     35 H          -0.4942    1.5517   -0.8102 H       1  UNL1        0.0625
     36 H           0.2706    0.5616    2.8132 H       1  UNL1        0.0624
     37 H           2.3959    1.8103    2.6138 H       1  UNL1        0.0625
@<TRIPOS>BOND
     1     1     2    2
     2     2     3   ar
     3     3     4   ar
     4     4     5   ar
     5     5     6   ar
     6     6     7   ar
     7     7     8   ar
     8     8     9    1
     9     9    10   ar
    10    10    11   ar
    11    11    12   ar
    12    12    13   ar
    13    13    14   ar
    14    14    15   ar
    15    15    16   ar
    16    16    17   ar
    17    17    18   ar
    18    18    19   ar
    19    19    20   ar
    20    20    21   ar
    21     8    22   ar
    22    22    23   ar
    23    23    24   ar
    24    24     2   ar
    25    24     6   ar
    26    21     9   ar
    27    21    13   ar
    28    20    15   ar
    29     3    25    1
    30     4    26    1
    31     5    27    1
    32     7    28    1
    33    10    29    1
    34    11    30    1
    35    12    31    1
    36    16    32    1
    37    17    33    1
    38    18    34    1
    39    19    35    1
    40    22    36    1
    41    23    37    1
