@<TRIPOS>MOLECULE
*****
 36 40 0 0 0
SMALL
GASTEIGER

@<TRIPOS>ATOM
      1 O          -4.7077    0.6807    2.3129 O.2     1  UNL1       -0.2872
      2 C          -4.1881    0.8962    1.2240 C.ar    1  UNL1        0.1894
      3 C          -4.8187    1.8324    0.2611 C.ar    1  UNL1        0.0017
      4 C          -4.2016    2.0542   -0.9044 C.ar    1  UNL1        0.0058
      5 N          -3.0105    1.4886   -1.2710 N.ar    1  UNL1       -0.3604
      6 C          -2.3813    0.5420   -0.4484 C.ar    1  UNL1        0.0507
      7 C          -1.1770   -0.0568   -0.8299 C.ar    1  UNL1       -0.0299
      8 C          -0.5223   -0.9688    0.0181 C.ar    1  UNL1       -0.0152
      9 C           0.7357   -1.5881   -0.3916 C.ar    1  UNL1       -0.0064
     10 C           0.7615   -2.8585   -1.0039 C.ar    1  UNL1       -0.0532
     11 C           1.9606   -3.4501   -1.4062 C.ar    1  UNL1       -0.0577
     12 C           3.1800   -2.7989   -1.2146 C.ar    1  UNL1       -0.0186
     13 C           3.1343   -1.5463   -0.6050 C.ar    1  UNL1        0.1388
     14 O           4.2226   -0.7771   -0.3425 O.2     1  UNL1       -0.4368
     15 C           3.7786    0.3591    0.2577 C.ar    1  UNL1        0.2284
     16 N           4.6081    1.3426    0.6537 N.ar    1  UNL1       -0.2205
     17 C           3.9657    2.3790    1.2325 C.ar    1  UNL1        0.0314
     18 C           2.5944    2.4764    1.4249 C.ar    1  UNL1       -0.0428
     19 C           1.7740    1.4329    0.9957 C.ar    1  UNL1       -0.0474
     20 C           2.3899    0.3258    0.3842 C.ar    1  UNL1        0.0482
     21 C           1.9657   -0.9167   -0.1841 C.ar    1  UNL1        0.0372
     22 C          -1.0945   -1.2724    1.2640 C.ar    1  UNL1       -0.0532
     23 C          -2.2882   -0.6704    1.6651 C.ar    1  UNL1       -0.0484
     24 C          -2.9213    0.2369    0.8127 C.ar    1  UNL1        0.0450
     25 H          -5.7562    2.2911    0.5419 H       1  UNL1        0.0670
     26 H          -4.6279    2.7223   -1.6476 H       1  UNL1        0.0808
     27 H          -2.7026    1.5844   -2.2321 H       1  UNL1        0.1653
     28 H          -0.7331    0.1875   -1.7927 H       1  UNL1        0.0644
     29 H          -0.1726   -3.3936   -1.1709 H       1  UNL1        0.0624
     30 H           1.9458   -4.4314   -1.8762 H       1  UNL1        0.0619
     31 H           4.1216   -3.2403   -1.5202 H       1  UNL1        0.0654
     32 H           4.6196    3.1840    1.5620 H       1  UNL1        0.0831
     33 H           2.1686    3.3520    1.9043 H       1  UNL1        0.0633
     34 H           0.6994    1.4819    1.1374 H       1  UNL1        0.0626
     35 H          -0.6034   -1.9760    1.9346 H       1  UNL1        0.0624
     36 H          -2.7191   -0.9048    2.6359 H       1  UNL1        0.0625
@<TRIPOS>BOND
     1     1     2    2
     2     2     3   ar
     3     3     4   ar
     4     4     5   ar
     5     5     6   ar
     6     6     7   ar
     7     7     8   ar
     8     8     9    1
     9     9    10   ar
    10    10    11   ar
    11    11    12   ar
    12    12    13   ar
    13    13    14   ar
    14    14    15   ar
    15    15    16   ar
    16    16    17   ar
    17    17    18   ar
    18    18    19   ar
    19    19    20   ar
    20    20    21   ar
    21     8    22   ar
    22    22    23   ar
    23    23    24   ar
    24    24     2   ar
    25    24     6   ar
    26    21     9   ar
    27    21    13   ar
    28    20    15   ar
    29     3    25    1
    30     4    26    1
    31     5    27    1
    32     7    28    1
    33    10    29    1
    34    11    30    1
    35    12    31    1
    36    17    32    1
    37    18    33    1
    38    19    34    1
    39    22    35    1
    40    23    36    1
