@<TRIPOS>MOLECULE
*****
 26 28 0 0 0
SMALL
GASTEIGER

@<TRIPOS>ATOM
      1 O          -3.9263    2.0565    0.9778 O.2     1  UNL1       -0.2872
      2 C          -3.4970    0.9875    0.5588 C.ar    1  UNL1        0.1894
      3 C          -4.4298   -0.0950    0.1575 C.ar    1  UNL1        0.0017
      4 C          -3.9113   -1.2425   -0.2932 C.ar    1  UNL1        0.0058
      5 N          -2.5718   -1.4906   -0.4112 N.ar    1  UNL1       -0.3604
      6 C          -1.6223   -0.5232   -0.0544 C.ar    1  UNL1        0.0507
      7 C          -0.2501   -0.7759   -0.1747 C.ar    1  UNL1       -0.0284
      8 C           0.7293    0.1833    0.1784 C.ar    1  UNL1        0.0041
      9 C           2.1746   -0.1299    0.0336 C.ar    1  UNL1        0.0934
     10 C           3.2136    0.7407    0.3516 C.ar    1  UNL1       -0.0325
     11 C           4.5350    0.3347    0.1731 C.ar    1  UNL1       -0.0398
     12 C           4.7715   -0.9302   -0.3181 C.ar    1  UNL1        0.0500
     13 N           3.7708   -1.7704   -0.6250 N.ar    1  UNL1       -0.1571
     14 N           2.4706   -1.3632   -0.4464 N.ar    1  UNL1       -0.1493
     15 C           0.2599    1.4219    0.6633 C.ar    1  UNL1       -0.0517
     16 C          -1.1080    1.6928    0.7906 C.ar    1  UNL1       -0.0483
     17 C          -2.0406    0.7218    0.4321 C.ar    1  UNL1        0.0450
     18 H          -5.4906    0.0915    0.2471 H       1  UNL1        0.0670
     19 H          -4.5491   -2.0667   -0.6000 H       1  UNL1        0.0808
     20 H          -2.2601   -2.3888   -0.7623 H       1  UNL1        0.1653
     21 H           0.0655   -1.7472   -0.5541 H       1  UNL1        0.0645
     22 H           3.0297    1.7358    0.7379 H       1  UNL1        0.0640
     23 H           5.3588    0.9970    0.4144 H       1  UNL1        0.0634
     24 H           5.7730   -1.3098   -0.4811 H       1  UNL1        0.0848
     25 H           0.9458    2.2121    0.9563 H       1  UNL1        0.0624
     26 H          -1.4408    2.6575    1.1677 H       1  UNL1        0.0625
@<TRIPOS>BOND
     1     1     2    2
     2     2     3   ar
     3     3     4   ar
     4     4     5   ar
     5     5     6   ar
     6     6     7   ar
     7     7     8   ar
     8     8     9    1
     9     9    10   ar
    10    10    11   ar
    11    11    12   ar
    12    12    13   ar
    13    13    14   ar
    14     8    15   ar
    15    15    16   ar
    16    16    17   ar
    17    17     2   ar
    18    17     6   ar
    19    14     9   ar
    20     3    18    1
    21     4    19    1
    22     5    20    1
    23     7    21    1
    24    10    22    1
    25    11    23    1
    26    12    24    1
    27    15    25    1
    28    16    26    1
