@<TRIPOS>MOLECULE
*****
 25 27 0 0 0
SMALL
GASTEIGER

@<TRIPOS>ATOM
      1 O           3.7433   -0.7279    1.9973 O.2     1  UNL1       -0.2872
      2 C           3.2178   -0.1283    1.0665 C.ar    1  UNL1        0.1894
      3 C           4.0360    0.7026    0.1491 C.ar    1  UNL1        0.0017
      4 C           3.4203    1.3251   -0.8616 C.ar    1  UNL1        0.0058
      5 N           2.0802    1.2377   -1.1249 N.ar    1  UNL1       -0.3604
      6 C           1.2249    0.5200   -0.2744 C.ar    1  UNL1        0.0507
      7 C          -0.1494    0.4467   -0.5281 C.ar    1  UNL1       -0.0299
      8 C          -0.9973   -0.3027    0.3059 C.ar    1  UNL1       -0.0130
      9 C          -2.4267   -0.3698    0.0536 C.ar    1  UNL1        0.0194
     10 C          -3.5162   -0.5315    0.9422 C.ar    1  UNL1        0.0568
     11 N          -4.6952   -0.5622    0.3155 N.ar    1  UNL1       -0.1817
     12 N          -4.3666   -0.4284   -0.9784 N.ar    1  UNL1       -0.2841
     13 C          -3.0227   -0.3086   -1.1888 C.ar    1  UNL1        0.0300
     14 C          -0.4470   -0.9889    1.3996 C.ar    1  UNL1       -0.0531
     15 C           0.9256   -0.9391    1.6539 C.ar    1  UNL1       -0.0484
     16 C           1.7544   -0.1918    0.8152 C.ar    1  UNL1        0.0450
     17 H           5.0969    0.7744    0.3428 H       1  UNL1        0.0670
     18 H           3.9730    1.9538   -1.5541 H       1  UNL1        0.0808
     19 H           1.6779    1.8617   -1.8145 H       1  UNL1        0.1653
     20 H          -0.5613    0.9885   -1.3750 H       1  UNL1        0.0644
     21 H          -3.4991   -0.6228    2.0208 H       1  UNL1        0.0854
     22 H          -5.1126   -0.4315   -1.6665 H       1  UNL1        0.1882
     23 H          -2.6257   -0.2085   -2.1886 H       1  UNL1        0.0830
     24 H          -1.0756   -1.5858    2.0572 H       1  UNL1        0.0624
     25 H           1.3449   -1.4830    2.4974 H       1  UNL1        0.0625
@<TRIPOS>BOND
     1     1     2    2
     2     2     3   ar
     3     3     4   ar
     4     4     5   ar
     5     5     6   ar
     6     6     7   ar
     7     7     8   ar
     8     8     9    1
     9     9    10   ar
    10    10    11   ar
    11    11    12   ar
    12    12    13   ar
    13     8    14   ar
    14    14    15   ar
    15    15    16   ar
    16    16     2   ar
    17    16     6   ar
    18    13     9   ar
    19     3    17    1
    20     4    18    1
    21     5    19    1
    22     7    20    1
    23    10    21    1
    24    12    22    1
    25    13    23    1
    26    14    24    1
    27    15    25    1
