@<TRIPOS>MOLECULE
*****
 36 40 0 0 0
SMALL
GASTEIGER

@<TRIPOS>ATOM
      1 O           4.9917    0.0539   -2.5899 O.2     1  UNL1       -0.2872
      2 C           4.6944    0.3384   -1.4356 C.ar    1  UNL1        0.1894
      3 C           5.6495    1.0727   -0.5697 C.ar    1  UNL1        0.0017
      4 C           5.2668    1.3849    0.6730 C.ar    1  UNL1        0.0058
      5 N           4.0409    1.0884    1.2049 N.ar    1  UNL1       -0.3604
      6 C           3.1050    0.3377    0.4777 C.ar    1  UNL1        0.0507
      7 C           1.8603    0.0103    1.0259 C.ar    1  UNL1       -0.0298
      8 C           0.9028   -0.7030    0.2809 C.ar    1  UNL1       -0.0125
      9 C          -0.3937   -1.0364    0.8641 C.ar    1  UNL1        0.0242
     10 C          -0.5513   -1.8959    1.9519 C.ar    1  UNL1        0.0373
     11 N          -1.7290   -2.2311    2.5292 N.ar    1  UNL1       -0.2619
     12 C          -2.8725   -1.7057    2.0284 C.ar    1  UNL1        0.0374
     13 C          -2.8373   -0.8259    0.9390 C.ar    1  UNL1        0.0275
     14 C          -1.5985   -0.5069    0.3787 C.ar    1  UNL1        0.0583
     15 N          -1.8409    0.3781   -0.6496 N.ar    1  UNL1       -0.3535
     16 C          -3.1856    0.6242   -0.7812 C.ar    1  UNL1        0.0504
     17 C          -3.8743    1.4368   -1.6791 C.ar    1  UNL1       -0.0196
     18 C          -5.2514    1.4498   -1.5186 C.ar    1  UNL1        0.0295
     19 N          -5.9286    0.7505   -0.5818 N.ar    1  UNL1       -0.2625
     20 C          -5.2348   -0.0328    0.2809 C.ar    1  UNL1        0.0373
     21 C          -3.8386   -0.1171    0.2026 C.ar    1  UNL1        0.0269
     22 C           1.2166   -1.0819   -1.0359 C.ar    1  UNL1       -0.0531
     23 C           2.4479   -0.7483   -1.6028 C.ar    1  UNL1       -0.0484
     24 C           3.3816   -0.0353   -0.8483 C.ar    1  UNL1        0.0450
     25 H           6.6184    1.3192   -0.9804 H       1  UNL1        0.0670
     26 H           5.9329    1.9129    1.3499 H       1  UNL1        0.0808
     27 H           3.8997    1.2196    2.2001 H       1  UNL1        0.1653
     28 H           1.6236    0.3224    2.0414 H       1  UNL1        0.0644
     29 H           0.3157   -2.3695    2.4086 H       1  UNL1        0.0836
     30 H          -3.7922   -2.0035    2.5194 H       1  UNL1        0.0836
     31 H          -1.1210    0.7907   -1.2265 H       1  UNL1        0.1659
     32 H          -3.3811    2.0181   -2.4471 H       1  UNL1        0.0653
     33 H          -5.8751    2.0542   -2.1728 H       1  UNL1        0.0830
     34 H          -5.8217   -0.5737    1.0144 H       1  UNL1        0.0836
     35 H           0.5010   -1.6510   -1.6283 H       1  UNL1        0.0624
     36 H           2.6788   -1.0449   -2.6236 H       1  UNL1        0.0625
@<TRIPOS>BOND
     1     1     2    2
     2     2     3   ar
     3     3     4   ar
     4     4     5   ar
     5     5     6   ar
     6     6     7   ar
     7     7     8   ar
     8     8     9    1
     9     9    10   ar
    10    10    11   ar
    11    11    12   ar
    12    12    13   ar
    13    13    14   ar
    14    14    15   ar
    15    15    16   ar
    16    16    17   ar
    17    17    18   ar
    18    18    19   ar
    19    19    20   ar
    20    20    21   ar
    21     8    22   ar
    22    22    23   ar
    23    23    24   ar
    24    24     2   ar
    25    24     6   ar
    26    14     9   ar
    27    21    16   ar
    28    21    13   ar
    29     3    25    1
    30     4    26    1
    31     5    27    1
    32     7    28    1
    33    10    29    1
    34    12    30    1
    35    15    31    1
    36    17    32    1
    37    18    33    1
    38    20    34    1
    39    22    35    1
    40    23    36    1
