@<TRIPOS>MOLECULE
*****
 32 36 0 0 0
SMALL
GASTEIGER

@<TRIPOS>ATOM
      1 O           5.7727    1.5011   -0.0604 O.2     1  UNL1       -0.2872
      2 C           5.1595    0.4458   -0.1724 C.ar    1  UNL1        0.1894
      3 C           5.8882   -0.8315   -0.3714 C.ar    1  UNL1        0.0017
      4 C           5.1750   -1.9567   -0.4883 C.ar    1  UNL1        0.0058
      5 N           3.8096   -2.0153   -0.4369 N.ar    1  UNL1       -0.3604
      6 C           3.0422   -0.8573   -0.2518 C.ar    1  UNL1        0.0508
      7 C           1.6461   -0.9160   -0.1992 C.ar    1  UNL1       -0.0254
      8 C           0.8769    0.2474   -0.0133 C.ar    1  UNL1        0.0389
      9 C          -0.5800    0.1402    0.0355 C.ar    1  UNL1        0.2285
     10 N          -1.3349   -0.9409   -0.0736 N.ar    1  UNL1       -0.2088
     11 C          -2.6133   -0.4623    0.0444 C.ar    1  UNL1        0.1135
     12 C          -3.8529   -1.1062    0.0134 C.ar    1  UNL1        0.0120
     13 C          -4.9862   -0.3190    0.1657 C.ar    1  UNL1        0.1573
     14 O          -6.2915   -0.7132    0.1703 O.2     1  UNL1       -0.4424
     15 C          -6.9754    0.4533    0.3529 C.ar    1  UNL1        0.1831
     16 N          -6.2353    1.5365    0.4630 N.ar    1  UNL1       -0.2160
     17 C          -4.9562    1.0584    0.3451 C.ar    1  UNL1        0.1129
     18 C          -3.7162    1.7014    0.3758 C.ar    1  UNL1        0.0120
     19 C          -2.5835    0.9134    0.2235 C.ar    1  UNL1        0.1580
     20 O          -1.2800    1.3083    0.2190 O.2     1  UNL1       -0.4352
     21 C           1.5354    1.4812    0.1201 C.ar    1  UNL1       -0.0487
     22 C           2.9298    1.5556    0.0696 C.ar    1  UNL1       -0.0482
     23 C           3.6753    0.3895   -0.1156 C.ar    1  UNL1        0.0450
     24 H           6.9677   -0.7968   -0.4136 H       1  UNL1        0.0670
     25 H           5.6604   -2.9175   -0.6353 H       1  UNL1        0.0808
     26 H           3.3477   -2.9119   -0.5346 H       1  UNL1        0.1653
     27 H           1.1429   -1.8758   -0.3034 H       1  UNL1        0.0646
     28 H          -3.9248   -2.1785   -0.1241 H       1  UNL1        0.0677
     29 H          -8.0533    0.3775    0.3895 H       1  UNL1        0.1255
     30 H          -3.6450    2.7738    0.5134 H       1  UNL1        0.0677
     31 H           0.9690    2.3996    0.2651 H       1  UNL1        0.0625
     32 H           3.4300    2.5160    0.1740 H       1  UNL1        0.0625
@<TRIPOS>BOND
     1     1     2    2
     2     2     3   ar
     3     3     4   ar
     4     4     5   ar
     5     5     6   ar
     6     6     7   ar
     7     7     8   ar
     8     8     9    1
     9     9    10   ar
    10    10    11   ar
    11    11    12   ar
    12    12    13   ar
    13    13    14   ar
    14    14    15   ar
    15    15    16   ar
    16    16    17   ar
    17    17    18   ar
    18    18    19   ar
    19    19    20   ar
    20     8    21   ar
    21    21    22   ar
    22    22    23   ar
    23    23     2   ar
    24    23     6   ar
    25    20     9   ar
    26    19    11   ar
    27    17    13   ar
    28     3    24    1
    29     4    25    1
    30     5    26    1
    31     7    27    1
    32    12    28    1
    33    15    29    1
    34    18    30    1
    35    21    31    1
    36    22    32    1
