@<TRIPOS>MOLECULE
*****
 32 36 0 0 0
SMALL
GASTEIGER

@<TRIPOS>ATOM
      1 O          -5.9671    0.2183   -1.5882 O.2     1  UNL1       -0.2872
      2 C          -5.2964    0.0729   -0.5727 C.ar    1  UNL1        0.1894
      3 C          -5.9537   -0.1312    0.7421 C.ar    1  UNL1        0.0017
      4 C          -5.1783   -0.2850    1.8209 C.ar    1  UNL1        0.0058
      5 N          -3.8110   -0.2674    1.7984 N.ar    1  UNL1       -0.3604
      6 C          -3.1095   -0.0805    0.5996 C.ar    1  UNL1        0.0507
      7 C          -1.7110   -0.0623    0.5745 C.ar    1  UNL1       -0.0280
      8 C          -0.9954    0.1253   -0.6267 C.ar    1  UNL1        0.0091
      9 C           0.4835    0.1323   -0.5716 C.ar    1  UNL1        0.1095
     10 N           1.1702   -0.0281    0.5446 N.ar    1  UNL1       -0.2390
     11 C           2.5295    0.0230    0.2973 C.ar    1  UNL1        0.0801
     12 C           3.5490   -0.1091    1.2486 C.ar    1  UNL1       -0.0194
     13 C           4.8871   -0.0373    0.8616 C.ar    1  UNL1        0.0410
     14 S           6.3167   -0.1651    1.8123 S.2     1  UNL1       -0.0753
     15 C           7.2611    0.0563    0.4014 C.ar    1  UNL1        0.0659
     16 N           6.6022    0.2182   -0.7233 N.ar    1  UNL1       -0.2474
     17 C           5.2417    0.1665   -0.4725 C.ar    1  UNL1        0.0793
     18 C           4.2204    0.2984   -1.4219 C.ar    1  UNL1       -0.0194
     19 C           2.8830    0.2262   -1.0330 C.ar    1  UNL1        0.0416
     20 S           1.4560    0.3531   -1.9770 S.2     1  UNL1       -0.0671
     21 C          -1.7299    0.2958   -1.8142 C.ar    1  UNL1       -0.0512
     22 C          -3.1289    0.2801   -1.8057 C.ar    1  UNL1       -0.0483
     23 C          -3.8107    0.0927   -0.6030 C.ar    1  UNL1        0.0450
     24 H          -7.0340   -0.1467    0.7708 H       1  UNL1        0.0670
     25 H          -5.6092   -0.4373    2.8065 H       1  UNL1        0.0808
     26 H          -3.2982   -0.3922    2.6633 H       1  UNL1        0.1653
     27 H          -1.1614   -0.1962    1.5051 H       1  UNL1        0.0645
     28 H           3.2821   -0.2680    2.2895 H       1  UNL1        0.0651
     29 H           8.3427    0.0614    0.4412 H       1  UNL1        0.0907
     30 H           4.4871    0.4573   -2.4630 H       1  UNL1        0.0651
     31 H          -1.2359    0.4445   -2.7716 H       1  UNL1        0.0624
     32 H          -3.6817    0.4135   -2.7333 H       1  UNL1        0.0625
@<TRIPOS>BOND
     1     1     2    2
     2     2     3   ar
     3     3     4   ar
     4     4     5   ar
     5     5     6   ar
     6     6     7   ar
     7     7     8   ar
     8     8     9    1
     9     9    10   ar
    10    10    11   ar
    11    11    12   ar
    12    12    13   ar
    13    13    14   ar
    14    14    15   ar
    15    15    16   ar
    16    16    17   ar
    17    17    18   ar
    18    18    19   ar
    19    19    20   ar
    20     8    21   ar
    21    21    22   ar
    22    22    23   ar
    23    23     2   ar
    24    23     6   ar
    25    20     9   ar
    26    19    11   ar
    27    17    13   ar
    28     3    24    1
    29     4    25    1
    30     5    26    1
    31     7    27    1
    32    12    28    1
    33    15    29    1
    34    18    30    1
    35    21    31    1
    36    22    32    1
