@<TRIPOS>MOLECULE
*****
 36 42 0 0 0
SMALL
GASTEIGER

@<TRIPOS>ATOM
      1 SI          5.6360   -0.1002   -0.2934 Si      1  UNL1        0.0000
      2 C           6.1242    1.6522    0.2745 C.2     1  UNL1        0.0000
      3 C           5.0445    2.3932    0.5999 C.2     1  UNL1        0.0000
      4 C           3.8323    1.6640    0.4306 C.ar    1  UNL1        0.0000
      5 S           2.2507    2.2231    0.7268 S.2     1  UNL1        0.0000
      6 C           1.5911    0.7214    0.2556 C.ar    1  UNL1        0.0000
      7 C           0.0833    0.3352    0.2228 C.ar    1  UNL1        0.0000
      8 S          -1.2489    1.2914    0.6419 S.2     1  UNL1        0.0000
      9 C          -2.3557    0.0186    0.2658 C.ar    1  UNL1        0.0000
     10 C          -1.7011   -1.1298   -0.1562 C.ar    1  UNL1        0.0000
     11 C          -0.3116   -0.9123   -0.1769 C.ar    1  UNL1        0.0000
     12 C           0.7275   -1.8210   -0.5562 C.ar    1  UNL1        0.0000
     13 C           0.4805   -3.1004   -0.9779 C.ar    1  UNL1        0.0000
     14 S           1.9663   -3.8976   -1.3478 S.2     1  UNL1        0.0000
     15 C           2.9084   -2.5062   -0.9346 C.ar    1  UNL1        0.0000
     16 C           2.0972   -1.4795   -0.5302 C.ar    1  UNL1        0.0000
     17 C           2.5627   -0.1835   -0.1179 C.ar    1  UNL1        0.0000
     18 C           3.8382    0.3511   -0.0193 C.ar    1  UNL1        0.0000
     19 C          -3.7794    0.2293    0.4552 C.ar    1  UNL1        0.0000
     20 C          -4.5501   -0.4709    1.3879 C.ar    1  UNL1        0.0000
     21 N          -5.8983   -0.3456    1.6207 N.ar    1  UNL1        0.0000
     22 C          -6.6492    0.5424    0.9040 C.ar    1  UNL1        0.0000
     23 C          -6.0055    1.3140   -0.0847 C.ar    1  UNL1        0.0000
     24 N          -6.5800    2.2234   -0.8886 N.ar    1  UNL1        0.0000
     25 S          -5.3721    2.8175   -1.8602 S.2     1  UNL1        0.0000
     26 N          -4.0751    1.9427   -1.3121 N.ar    1  UNL1        0.0000
     27 C          -4.5245    1.1508   -0.3210 C.ar    1  UNL1        0.0000
     28 H           6.1467   -1.1323    0.6420 H       1  UNL1        0.0000
     29 H           5.9910   -0.3250   -1.7163 H       1  UNL1        0.0000
     30 H           7.1587    1.9546    0.3091 H       1  UNL1        0.0000
     31 H           5.0795    3.4179    0.9481 H       1  UNL1        0.0000
     32 H          -2.2142   -2.0417   -0.4337 H       1  UNL1        0.0000
     33 H          -0.4550   -3.6278   -1.0982 H       1  UNL1        0.0000
     34 H           3.9806   -2.5670   -1.0266 H       1  UNL1        0.0000
     35 H          -4.0728   -1.2088    2.0340 H       1  UNL1        0.0000
     36 H          -7.7060    0.6071    1.1265 H       1  UNL1        0.0000
@<TRIPOS>BOND
     1     1     2    1
     2     2     3    2
     3     3     4    1
     4     4     5   ar
     5     5     6   ar
     6     6     7   ar
     7     7     8   ar
     8     8     9   ar
     9     9    10   ar
    10    10    11   ar
    11    11    12   ar
    12    12    13   ar
    13    13    14   ar
    14    14    15   ar
    15    15    16   ar
    16    16    17   ar
    17    17    18   ar
    18     9    19    1
    19    19    20   ar
    20    20    21   ar
    21    21    22   ar
    22    22    23   ar
    23    23    24   ar
    24    24    25   ar
    25    25    26   ar
    26    26    27   ar
    27    18     1    1
    28    27    19   ar
    29    18     4   ar
    30    27    23   ar
    31    17     6   ar
    32    11     7   ar
    33    16    12   ar
    34     1    28    1
    35     1    29    1
    36     2    30    1
    37     3    31    1
    38    10    32    1
    39    13    33    1
    40    15    34    1
    41    20    35    1
    42    22    36    1
