@<TRIPOS>MOLECULE
*****
 32 36 0 0 0
SMALL
GASTEIGER

@<TRIPOS>ATOM
      1 O           5.7212    1.3858    1.0080 O.2     1  UNL1       -0.2872
      2 C           5.1469    0.5066    0.3757 C.ar    1  UNL1        0.1894
      3 C           5.9210   -0.5355   -0.3436 C.ar    1  UNL1        0.0017
      4 C           5.2464   -1.4725   -1.0187 C.ar    1  UNL1        0.0058
      5 N           3.8826   -1.5387   -1.0938 N.ar    1  UNL1       -0.3604
      6 C           3.0752   -0.5952   -0.4448 C.ar    1  UNL1        0.0508
      7 C           1.6809   -0.6608   -0.5202 C.ar    1  UNL1       -0.0270
      8 C           0.8668    0.2858    0.1309 C.ar    1  UNL1        0.0193
      9 C          -0.5929    0.1610    0.0125 C.ar    1  UNL1        0.1422
     10 N          -1.2259   -0.7858   -0.6687 N.ar    1  UNL1       -0.2068
     11 C          -2.5588   -0.5290   -0.5153 C.ar    1  UNL1        0.1998
     12 N          -3.6010   -1.2262   -1.0288 N.ar    1  UNL1       -0.2020
     13 C          -4.8198   -0.7299   -0.7040 C.ar    1  UNL1        0.1992
     14 N          -6.0460   -1.2145   -1.0714 N.ar    1  UNL1       -0.2152
     15 C          -6.9121   -0.3945   -0.5109 C.ar    1  UNL1        0.0973
     16 N          -6.2970    0.6004    0.2039 N.ar    1  UNL1       -0.3279
     17 C          -4.9542    0.4040    0.0932 C.ar    1  UNL1        0.1791
     18 N          -3.9451    1.1260    0.6237 N.ar    1  UNL1       -0.2052
     19 C          -2.7544    0.5960    0.2744 C.ar    1  UNL1        0.1795
     20 N          -1.5033    1.0192    0.5991 N.ar    1  UNL1       -0.3214
     21 C           1.4830    1.3108    0.8670 C.ar    1  UNL1       -0.0503
     22 C           2.8768    1.3892    0.9512 C.ar    1  UNL1       -0.0483
     23 C           3.6644    0.4395    0.2975 C.ar    1  UNL1        0.0450
     24 H           6.9997   -0.4923   -0.2907 H       1  UNL1        0.0670
     25 H           5.7641   -2.2579   -1.5621 H       1  UNL1        0.0808
     26 H           3.4480   -2.2828   -1.6278 H       1  UNL1        0.1653
     27 H           1.2121   -1.4597   -1.0936 H       1  UNL1        0.0645
     28 H          -7.9895   -0.4691   -0.5859 H       1  UNL1        0.1028
     29 H          -6.7433    1.3440    0.7193 H       1  UNL1        0.1683
     30 H          -1.2972    1.8226    1.1702 H       1  UNL1        0.1689
     31 H           0.9044    2.0673    1.3887 H       1  UNL1        0.0625
     32 H           3.3469    2.1863    1.5235 H       1  UNL1        0.0625
@<TRIPOS>BOND
     1     1     2    2
     2     2     3   ar
     3     3     4   ar
     4     4     5   ar
     5     5     6   ar
     6     6     7   ar
     7     7     8   ar
     8     8     9    1
     9     9    10   ar
    10    10    11   ar
    11    11    12   ar
    12    12    13   ar
    13    13    14   ar
    14    14    15   ar
    15    15    16   ar
    16    16    17   ar
    17    17    18   ar
    18    18    19   ar
    19    19    20   ar
    20     8    21   ar
    21    21    22   ar
    22    22    23   ar
    23    23     2   ar
    24    23     6   ar
    25    20     9   ar
    26    19    11   ar
    27    17    13   ar
    28     3    24    1
    29     4    25    1
    30     5    26    1
    31     7    27    1
    32    15    28    1
    33    16    29    1
    34    20    30    1
    35    21    31    1
    36    22    32    1
