@<TRIPOS>MOLECULE
*****
 33 36 0 0 0
SMALL
GASTEIGER

@<TRIPOS>ATOM
      1 O          -2.3149   -2.6790   -0.0901 O.2     1  UNL1       -0.2854
      2 C          -1.4337   -1.8348   -0.1155 C.ar    1  UNL1        0.2099
      3 C          -0.0298   -2.2312   -0.2236 C.ar    1  UNL1        0.0298
      4 C           0.9282   -1.2990   -0.1345 C.ar    1  UNL1        0.1404
      5 N           2.2543   -1.6729   -0.2086 N.ar    1  UNL1       -0.3392
      6 C           3.2883   -0.7437   -0.0789 C.ar    1  UNL1        0.0532
      7 C           4.6267   -1.1459   -0.1452 C.ar    1  UNL1       -0.0376
      8 C           5.6555   -0.2074   -0.0243 C.ar    1  UNL1       -0.0598
      9 C           5.3562    1.1416    0.1604 C.ar    1  UNL1       -0.0609
     10 C           4.0263    1.5553    0.2233 C.ar    1  UNL1       -0.0474
     11 C           2.9959    0.6137    0.1023 C.ar    1  UNL1        0.0646
     12 C           1.5733    1.0465    0.1645 C.ar    1  UNL1        0.2823
     13 O           1.3341    2.2452    0.3222 O.2     1  UNL1       -0.2651
     14 N           0.5905    0.0401    0.0407 N.ar    1  UNL1       -0.1789
     15 N          -0.7127    0.4833    0.0808 N.ar    1  UNL1       -0.1581
     16 C          -1.7050   -0.3511   -0.0078 C.ar    1  UNL1        0.1384
     17 C          -3.0980    0.1834    0.0156 C.ar    1  UNL1        0.0058
     18 C          -4.1772   -0.4932   -0.5642 C.ar    1  UNL1       -0.0524
     19 C          -5.4606    0.0609   -0.5253 C.ar    1  UNL1       -0.0611
     20 C          -5.6739    1.2968    0.0824 C.ar    1  UNL1       -0.0617
     21 C          -4.6043    1.9860    0.6483 C.ar    1  UNL1       -0.0611
     22 C          -3.3217    1.4347    0.6120 C.ar    1  UNL1       -0.0524
     23 H           0.1686   -3.2861   -0.3481 H       1  UNL1        0.0693
     24 H           2.4857   -2.6531   -0.2984 H       1  UNL1        0.1673
     25 H           4.8832   -2.1918   -0.2915 H       1  UNL1        0.0638
     26 H           6.6931   -0.5294   -0.0756 H       1  UNL1        0.0618
     27 H           6.1567    1.8717    0.2538 H       1  UNL1        0.0618
     28 H           3.7923    2.6085    0.3649 H       1  UNL1        0.0626
     29 H          -4.0496   -1.4482   -1.0657 H       1  UNL1        0.0624
     30 H          -6.2941   -0.4734   -0.9750 H       1  UNL1        0.0618
     31 H          -6.6725    1.7255    0.1091 H       1  UNL1        0.0618
     32 H          -4.7643    2.9547    1.1152 H       1  UNL1        0.0618
     33 H          -2.4968    1.9924    1.0535 H       1  UNL1        0.0624
@<TRIPOS>BOND
     1     1     2    2
     2     2     3   ar
     3     3     4   ar
     4     4     5   ar
     5     5     6   ar
     6     6     7   ar
     7     7     8   ar
     8     8     9   ar
     9     9    10   ar
    10    10    11   ar
    11    11    12   ar
    12    12    13    2
    13    12    14   ar
    14    14    15   ar
    15    15    16   ar
    16    16    17    1
    17    17    18   ar
    18    18    19   ar
    19    19    20   ar
    20    20    21   ar
    21    21    22   ar
    22    16     2   ar
    23    22    17   ar
    24    14     4   ar
    25    11     6   ar
    26     3    23    1
    27     5    24    1
    28     7    25    1
    29     8    26    1
    30     9    27    1
    31    10    28    1
    32    18    29    1
    33    19    30    1
    34    20    31    1
    35    21    32    1
    36    22    33    1
