@<TRIPOS>MOLECULE
*****
 44 46 0 0 0
SMALL
GASTEIGER

@<TRIPOS>ATOM
      1 O          -4.1823    0.1604   -0.0451 O.2     1  UNL1        0.0000
      2 C          -3.4877    1.1608   -0.0341 C.2     1  UNL1        0.0000
      3 C          -4.0357    2.5630   -0.0669 C.3     1  UNL1        0.0000
      4 C          -2.8650    3.4418    0.3585 C.3     1  UNL1        0.0000
      5 C          -1.6861    2.5235    0.3038 C.ar    1  UNL1        0.0000
      6 C          -2.0148    1.1941    0.0483 C.ar    1  UNL1        0.0000
      7 C          -1.0383    0.1829   -0.0541 C.ar    1  UNL1        0.0000
      8 SI         -1.5474   -1.5801   -0.7337 Si      1  UNL1        0.0000
      9 C          -0.1047   -2.5515   -1.4864 C.3     1  UNL1        0.0000
     10 C          -2.2922   -2.5878    0.6589 C.3     1  UNL1        0.0000
     11 C          -2.7597   -1.3980   -2.1812 C.3     1  UNL1        0.0000
     12 C           0.3204    0.5486    0.2823 C.ar    1  UNL1        0.0000
     13 C           1.4162   -0.3521    0.4240 C.ar    1  UNL1        0.0000
     14 C           2.7515    0.0198    0.6973 C.ar    1  UNL1        0.0000
     15 N           3.7698   -0.9369    0.8128 N.pl3   1  UNL1        0.0000
     16 C           3.6473   -2.1580    0.0140 C.3     1  UNL1        0.0000
     17 C           5.1384   -0.4981    1.0766 C.3     1  UNL1        0.0000
     18 C           2.9742    1.3826    0.8931 C.ar    1  UNL1        0.0000
     19 C           1.9347    2.3119    0.8188 C.ar    1  UNL1        0.0000
     20 C           0.6244    1.9166    0.5331 C.ar    1  UNL1        0.0000
     21 C          -0.3738    2.8952    0.5213 C.ar    1  UNL1        0.0000
     22 H          -4.8773    2.6667    0.6236 H       1  UNL1        0.0000
     23 H          -4.3620    2.7947   -1.0858 H       1  UNL1        0.0000
     24 H          -3.0081    3.8110    1.3799 H       1  UNL1        0.0000
     25 H          -2.7471    4.2947   -0.3172 H       1  UNL1        0.0000
     26 H           0.5599   -1.8923   -2.0519 H       1  UNL1        0.0000
     27 H          -0.4901   -3.3115   -2.1737 H       1  UNL1        0.0000
     28 H           0.4672   -3.0776   -0.7180 H       1  UNL1        0.0000
     29 H          -1.5606   -2.7384    1.4584 H       1  UNL1        0.0000
     30 H          -2.6065   -3.5711    0.2963 H       1  UNL1        0.0000
     31 H          -3.1657   -2.0894    1.0879 H       1  UNL1        0.0000
     32 H          -3.7982   -1.4096   -1.8439 H       1  UNL1        0.0000
     33 H          -2.5706   -0.4703   -2.7288 H       1  UNL1        0.0000
     34 H          -2.6384   -2.2336   -2.8776 H       1  UNL1        0.0000
     35 H           1.2072   -1.4111    0.3854 H       1  UNL1        0.0000
     36 H           3.4566   -1.9258   -1.0398 H       1  UNL1        0.0000
     37 H           2.8508   -2.8033    0.3984 H       1  UNL1        0.0000
     38 H           4.5655   -2.7550    0.0557 H       1  UNL1        0.0000
     39 H           5.7958   -1.3571    1.2527 H       1  UNL1        0.0000
     40 H           5.1933    0.1124    1.9846 H       1  UNL1        0.0000
     41 H           5.5427    0.0650    0.2283 H       1  UNL1        0.0000
     42 H           3.9633    1.7671    1.1197 H       1  UNL1        0.0000
     43 H           2.1701    3.3588    1.0011 H       1  UNL1        0.0000
     44 H          -0.1370    3.9370    0.7237 H       1  UNL1        0.0000
@<TRIPOS>BOND
     1     1     2    2
     2     2     3    1
     3     3     4    1
     4     4     5    1
     5     5     6   ar
     6     6     7   ar
     7     7     8    1
     8     8     9    1
     9     8    10    1
    10     8    11    1
    11     7    12   ar
    12    12    13   ar
    13    13    14   ar
    14    14    15    1
    15    15    16    1
    16    15    17    1
    17    14    18   ar
    18    18    19   ar
    19    19    20   ar
    20    20    21   ar
    21     6     2    1
    22    21     5   ar
    23    20    12   ar
    24     3    22    1
    25     3    23    1
    26     4    24    1
    27     4    25    1
    28     9    26    1
    29     9    27    1
    30     9    28    1
    31    10    29    1
    32    10    30    1
    33    10    31    1
    34    11    32    1
    35    11    33    1
    36    11    34    1
    37    13    35    1
    38    16    36    1
    39    16    37    1
    40    16    38    1
    41    17    39    1
    42    17    40    1
    43    17    41    1
    44    18    42    1
    45    19    43    1
    46    21    44    1
