@<TRIPOS>MOLECULE
*****
 32 34 0 0 0
SMALL
GASTEIGER

@<TRIPOS>ATOM
      1 O           3.6483   -2.0433    2.1501 O.2     1  UNL1       -0.2920
      2 C           3.6615   -1.2558    1.2209 C.2     1  UNL1        0.1638
      3 C           4.8858   -0.7007    0.5364 C.3     1  UNL1        0.0145
      4 C           4.3458    0.2399   -0.5541 C.3     1  UNL1       -0.0200
      5 C           2.8599    0.1541   -0.4173 C.ar    1  UNL1       -0.0359
      6 C           2.4674   -0.7029    0.5989 C.ar    1  UNL1        0.0212
      7 C           1.1425   -0.9438    0.9128 C.ar    1  UNL1       -0.0432
      8 C           0.1535   -0.2859    0.1649 C.ar    1  UNL1       -0.0155
      9 C          -1.2166   -0.4864    0.4328 C.ar    1  UNL1       -0.0329
     10 C          -2.2421    0.1596   -0.2845 C.ar    1  UNL1        0.0298
     11 N          -3.5983   -0.0650   -0.0133 N.pl3   1  UNL1       -0.3360
     12 C          -3.9747   -0.7375    1.2293 C.3     1  UNL1        0.0004
     13 C          -4.5916    0.8618   -0.5538 C.3     1  UNL1        0.0004
     14 C          -1.8214    1.0104   -1.3204 C.ar    1  UNL1       -0.0401
     15 C          -0.4673    1.2310   -1.6125 C.ar    1  UNL1       -0.0523
     16 C           0.5358    0.5945   -0.8797 C.ar    1  UNL1       -0.0175
     17 C           1.8982    0.8115   -1.1674 C.ar    1  UNL1       -0.0502
     18 H           5.4678   -1.5167    0.0977 H       1  UNL1        0.0348
     19 H           5.4987   -0.1531    1.2585 H       1  UNL1        0.0348
     20 H           4.6673   -0.0927   -1.5465 H       1  UNL1        0.0317
     21 H           4.6953    1.2644   -0.3898 H       1  UNL1        0.0317
     22 H           0.8924   -1.6265    1.7194 H       1  UNL1        0.0631
     23 H          -1.4688   -1.1767    1.2328 H       1  UNL1        0.0642
     24 H          -3.6333   -0.1711    2.1028 H       1  UNL1        0.0428
     25 H          -3.5708   -1.7549    1.2675 H       1  UNL1        0.0428
     26 H          -5.0623   -0.8449    1.3097 H       1  UNL1        0.0428
     27 H          -5.6060    0.5819   -0.2475 H       1  UNL1        0.0428
     28 H          -4.5949    0.8451   -1.6489 H       1  UNL1        0.0428
     29 H          -4.4109    1.8831   -0.2006 H       1  UNL1        0.0428
     30 H          -2.5430    1.5302   -1.9431 H       1  UNL1        0.0636
     31 H          -0.2141    1.9058   -2.4270 H       1  UNL1        0.0624
     32 H           2.1960    1.4842   -1.9674 H       1  UNL1        0.0627
@<TRIPOS>BOND
     1     1     2    2
     2     2     3    1
     3     3     4    1
     4     4     5    1
     5     5     6   ar
     6     6     7   ar
     7     7     8   ar
     8     8     9   ar
     9     9    10   ar
    10    10    11    1
    11    11    12    1
    12    11    13    1
    13    10    14   ar
    14    14    15   ar
    15    15    16   ar
    16    16    17   ar
    17     6     2    1
    18    17     5   ar
    19    16     8   ar
    20     3    18    1
    21     3    19    1
    22     4    20    1
    23     4    21    1
    24     7    22    1
    25     9    23    1
    26    12    24    1
    27    12    25    1
    28    12    26    1
    29    13    27    1
    30    13    28    1
    31    13    29    1
    32    14    30    1
    33    15    31    1
    34    17    32    1
