@<TRIPOS>MOLECULE
*****
 40 42 0 0 0
SMALL
GASTEIGER

@<TRIPOS>ATOM
      1 O           3.0870   -0.5199   -3.2022 O.2     1  UNL1       -0.2756
      2 C           3.2181   -0.6319   -1.9940 C.2     1  UNL1        0.2168
      3 C           4.5359   -0.6855   -1.2589 C.3     1  UNL1        0.0256
      4 C           4.1239   -0.5838    0.2050 C.3     1  UNL1       -0.0288
      5 C           2.7262   -1.1690    0.2229 C.3     1  UNL1        0.0166
      6 N           2.2031   -0.7874   -1.0635 N.am    1  UNL1       -0.2851
      7 C           0.8535   -1.1193   -1.4614 C.3     1  UNL1        0.0885
      8 N          -0.1728   -0.5445   -0.5980 N.am    1  UNL1       -0.2510
      9 C          -0.8430   -1.4493    0.2366 C.2     1  UNL1        0.2521
     10 O          -0.3778   -2.5479    0.5457 O.2     1  UNL1       -0.2696
     11 C          -2.2280   -1.1493    0.6952 C.ar    1  UNL1        0.0373
     12 C          -2.6207   -1.5776    1.9696 C.ar    1  UNL1       -0.0496
     13 C          -3.9186   -1.3324    2.4202 C.ar    1  UNL1       -0.0610
     14 C          -4.8308   -0.6754    1.5943 C.ar    1  UNL1       -0.0617
     15 C          -4.4523   -0.2714    0.3138 C.ar    1  UNL1       -0.0610
     16 C          -3.1551   -0.5147   -0.1417 C.ar    1  UNL1       -0.0496
     17 C          -0.2620    0.8884   -0.5009 C.ar    1  UNL1        0.0381
     18 C           0.1220    1.7124   -1.5713 C.ar    1  UNL1       -0.0402
     19 C           0.0506    3.1070   -1.4766 C.ar    1  UNL1       -0.0600
     20 C          -0.3931    3.7067   -0.3037 C.ar    1  UNL1       -0.0616
     21 C          -0.7538    2.9120    0.7781 C.ar    1  UNL1       -0.0600
     22 C          -0.6808    1.5178    0.6821 C.ar    1  UNL1       -0.0402
     23 H           5.0194   -1.6437   -1.4715 H       1  UNL1        0.0359
     24 H           5.1847    0.1419   -1.5560 H       1  UNL1        0.0359
     25 H           4.8122   -1.1017    0.8788 H       1  UNL1        0.0285
     26 H           4.0891    0.4719    0.5024 H       1  UNL1        0.0285
     27 H           2.7522   -2.2626    0.2826 H       1  UNL1        0.0465
     28 H           2.1178   -0.7624    1.0350 H       1  UNL1        0.0465
     29 H           0.6689   -0.8094   -2.4959 H       1  UNL1        0.0678
     30 H           0.7844   -2.2141   -1.4813 H       1  UNL1        0.0678
     31 H          -1.9160   -2.1031    2.6107 H       1  UNL1        0.0625
     32 H          -4.2204   -1.6602    3.4119 H       1  UNL1        0.0618
     33 H          -5.8430   -0.4880    1.9451 H       1  UNL1        0.0618
     34 H          -5.1697    0.2281   -0.3327 H       1  UNL1        0.0618
     35 H          -2.8794   -0.2116   -1.1482 H       1  UNL1        0.0625
     36 H           0.4728    1.2993   -2.5130 H       1  UNL1        0.0636
     37 H           0.3467    3.7206   -2.3241 H       1  UNL1        0.0618
     38 H          -0.4461    4.7895   -0.2296 H       1  UNL1        0.0618
     39 H          -1.0823    3.3734    1.7061 H       1  UNL1        0.0618
     40 H          -0.9227    0.9469    1.5734 H       1  UNL1        0.0636
@<TRIPOS>BOND
     1     1     2    2
     2     2     3    1
     3     3     4    1
     4     4     5    1
     5     5     6    1
     6     6     7    1
     7     7     8    1
     8     8     9   am
     9     9    10    2
    10     9    11    1
    11    11    12   ar
    12    12    13   ar
    13    13    14   ar
    14    14    15   ar
    15    15    16   ar
    16     8    17    1
    17    17    18   ar
    18    18    19   ar
    19    19    20   ar
    20    20    21   ar
    21    21    22   ar
    22     6     2   am
    23    16    11   ar
    24    22    17   ar
    25     3    23    1
    26     3    24    1
    27     4    25    1
    28     4    26    1
    29     5    27    1
    30     5    28    1
    31     7    29    1
    32     7    30    1
    33    12    31    1
    34    13    32    1
    35    14    33    1
    36    15    34    1
    37    16    35    1
    38    18    36    1
    39    19    37    1
    40    20    38    1
    41    21    39    1
    42    22    40    1
