@<TRIPOS>MOLECULE
*****
 36 39 0 0 0
SMALL
GASTEIGER

@<TRIPOS>ATOM
      1 O          -0.2702   -1.0404   -3.5008 O.2     1  UNL1       -0.2747
      2 C          -0.7746   -1.3568   -2.4277 C.2     1  UNL1        0.2269
      3 C          -1.2932   -2.7491   -2.1555 C.3     1  UNL1        0.0725
      4 S          -2.1430   -2.7029   -0.5676 S.3     1  UNL1       -0.1228
      5 C          -1.4400   -1.0871   -0.1223 C.3     1  UNL1        0.1152
      6 C          -2.4300   -0.1958    0.6178 C.ar    1  UNL1        0.0718
      7 C          -3.6430    0.1799    0.0330 C.ar    1  UNL1       -0.0377
      8 C          -4.5043    1.0207    0.7329 C.ar    1  UNL1       -0.0585
      9 C          -4.1383    1.4735    1.9933 C.ar    1  UNL1       -0.0436
     10 C          -2.9170    1.0699    2.5023 C.ar    1  UNL1        0.0280
     11 N          -2.0578    0.2605    1.8449 N.ar    1  UNL1       -0.2571
     12 N          -0.9508   -0.4998   -1.3565 N.am    1  UNL1       -0.2774
     13 C          -0.2305    0.7652   -1.3168 C.3     1  UNL1        0.0598
     14 C           1.0418    0.6345   -0.5373 C.ar    1  UNL1        0.0773
     15 C           1.6413    1.5717    0.2817 C.ar    1  UNL1        0.0340
     16 N           2.7682    0.9699    0.7797 N.ar    1  UNL1       -0.3063
     17 C           3.7295    1.4710    1.6543 C.ar    1  UNL1        0.0112
     18 C           4.7629    0.6876    2.0083 C.ar    1  UNL1       -0.0451
     19 C           4.8434   -0.6605    1.4643 C.ar    1  UNL1       -0.0569
     20 C           3.9077   -1.1367    0.6191 C.ar    1  UNL1       -0.0188
     21 C           2.8104   -0.3114    0.2424 C.ar    1  UNL1        0.1379
     22 N           1.7815   -0.5345   -0.5469 N.ar    1  UNL1       -0.2312
     23 H          -0.4528   -3.4466   -2.1135 H       1  UNL1        0.0472
     24 H          -1.9912   -3.0441   -2.9428 H       1  UNL1        0.0472
     25 H          -0.5848   -1.2955    0.5296 H       1  UNL1        0.0683
     26 H          -3.9175   -0.1757   -0.9558 H       1  UNL1        0.0636
     27 H          -5.4542    1.3169    0.2967 H       1  UNL1        0.0619
     28 H          -4.7892    2.1248    2.5655 H       1  UNL1        0.0633
     29 H          -2.5851    1.3968    3.4837 H       1  UNL1        0.0829
     30 H           0.0089    1.0928   -2.3343 H       1  UNL1        0.0530
     31 H          -0.8806    1.5255   -0.8717 H       1  UNL1        0.0530
     32 H           1.3647    2.5808    0.5494 H       1  UNL1        0.0832
     33 H           3.5994    2.4828    2.0153 H       1  UNL1        0.0813
     34 H           5.5380    1.0287    2.6860 H       1  UNL1        0.0632
     35 H           5.6862   -1.2778    1.7604 H       1  UNL1        0.0619
     36 H           3.9644   -2.1392    0.2112 H       1  UNL1        0.0654
@<TRIPOS>BOND
     1     1     2    2
     2     2     3    1
     3     3     4    1
     4     4     5    1
     5     5     6    1
     6     6     7   ar
     7     7     8   ar
     8     8     9   ar
     9     9    10   ar
    10    10    11   ar
    11     5    12    1
    12    12    13    1
    13    13    14    1
    14    14    15   ar
    15    15    16   ar
    16    16    17   ar
    17    17    18   ar
    18    18    19   ar
    19    19    20   ar
    20    20    21   ar
    21    21    22   ar
    22    12     2   am
    23    22    14   ar
    24    11     6   ar
    25    21    16   ar
    26     3    23    1
    27     3    24    1
    28     5    25    1
    29     7    26    1
    30     8    27    1
    31     9    28    1
    32    10    29    1
    33    13    30    1
    34    13    31    1
    35    15    32    1
    36    17    33    1
    37    18    34    1
    38    19    35    1
    39    20    36    1
