@<TRIPOS>MOLECULE
*****
 38 40 0 0 0
SMALL
GASTEIGER

@<TRIPOS>ATOM
      1 O          -5.4602   -1.6573    0.0542 O.2     1  UNL1       -0.2462
      2 C          -4.3949   -1.0386   -0.0276 C.ar    1  UNL1        0.3331
      3 N          -4.3643    0.3679    0.0648 N.ar    1  UNL1       -0.2622
      4 C          -5.6415    1.0259    0.2602 C.3     1  UNL1        0.0196
      5 C          -3.2135    1.1616    0.0322 C.ar    1  UNL1        0.2822
      6 C          -2.0245    0.4052   -0.1645 C.ar    1  UNL1        0.1516
      7 N          -0.7108    0.7781   -0.2934 N.ar    1  UNL1       -0.3217
      8 C          -0.2385    2.1424   -0.3580 C.3     1  UNL1        0.0140
      9 C           0.0332   -0.3879   -0.3965 C.ar    1  UNL1        0.1362
     10 C           1.4467   -0.3753   -0.4964 C.2     1  UNL1       -0.0185
     11 C           2.2185    0.1588    0.4642 C.2     1  UNL1       -0.0511
     12 C           3.6875    0.1594    0.4228 C.ar    1  UNL1       -0.0249
     13 C           4.4235   -0.9407   -0.0368 C.ar    1  UNL1       -0.0546
     14 C           5.8206   -0.9112   -0.0358 C.ar    1  UNL1       -0.0612
     15 C           6.4953    0.2134    0.4343 C.ar    1  UNL1       -0.0617
     16 C           5.7746    1.3066    0.9098 C.ar    1  UNL1       -0.0612
     17 C           4.3777    1.2773    0.9097 C.ar    1  UNL1       -0.0546
     18 N          -0.7650   -1.4422   -0.4382 N.ar    1  UNL1       -0.2101
     19 C          -2.0202   -0.9502   -0.2727 C.ar    1  UNL1        0.1685
     20 N          -3.1758   -1.6906   -0.2105 N.ar    1  UNL1       -0.2795
     21 C          -3.1193   -3.1372   -0.3166 C.3     1  UNL1        0.0181
     22 O          -3.2130    2.3816    0.1683 O.2     1  UNL1       -0.2652
     23 H          -6.0396    0.7343    1.2376 H       1  UNL1        0.0458
     24 H          -6.3428    0.6939   -0.5123 H       1  UNL1        0.0458
     25 H          -5.5626    2.1151    0.2187 H       1  UNL1        0.0458
     26 H           0.7222    2.1864   -0.8750 H       1  UNL1        0.0456
     27 H          -0.1433    2.5197    0.6629 H       1  UNL1        0.0456
     28 H          -0.9523    2.7439   -0.9260 H       1  UNL1        0.0456
     29 H           1.8767   -0.8889   -1.3506 H       1  UNL1        0.0654
     30 H           1.7768    0.6300    1.3395 H       1  UNL1        0.0625
     31 H           3.9205   -1.8387   -0.3879 H       1  UNL1        0.0623
     32 H           6.3807   -1.7703   -0.3960 H       1  UNL1        0.0618
     33 H           7.5820    0.2346    0.4365 H       1  UNL1        0.0618
     34 H           6.2994    2.1819    1.2839 H       1  UNL1        0.0618
     35 H           3.8349    2.1404    1.2880 H       1  UNL1        0.0623
     36 H          -2.6494   -3.4089   -1.2671 H       1  UNL1        0.0458
     37 H          -4.1144   -3.5880   -0.2788 H       1  UNL1        0.0458
     38 H          -2.5246   -3.5322    0.5131 H       1  UNL1        0.0458
@<TRIPOS>BOND
     1     1     2    2
     2     2     3   ar
     3     3     4    1
     4     3     5   ar
     5     5     6   ar
     6     6     7   ar
     7     7     8    1
     8     7     9   ar
     9     9    10    1
    10    10    11    2
    11    11    12    1
    12    12    13   ar
    13    13    14   ar
    14    14    15   ar
    15    15    16   ar
    16    16    17   ar
    17     9    18   ar
    18     6    19   ar
    19    19    20   ar
    20    20    21    1
    21     5    22    2
    22    20     2   ar
    23    17    12   ar
    24    19    18   ar
    25     4    23    1
    26     4    24    1
    27     4    25    1
    28     8    26    1
    29     8    27    1
    30     8    28    1
    31    10    29    1
    32    11    30    1
    33    13    31    1
    34    14    32    1
    35    15    33    1
    36    16    34    1
    37    17    35    1
    38    21    36    1
    39    21    37    1
    40    21    38    1
