@<TRIPOS>MOLECULE
*****
 39 41 0 0 0
SMALL
GASTEIGER

@<TRIPOS>ATOM
      1 O          -0.2637   -3.7374    0.5794 O.2     1  UNL1       -0.2658
      2 C           0.5803   -2.8530    0.4483 C.ar    1  UNL1        0.2719
      3 N           0.3769   -1.4866    0.2177 N.ar    1  UNL1       -0.1962
      4 C          -0.9189   -0.8734    0.0668 C.ar    1  UNL1        0.0694
      5 C          -2.1144   -1.5929    0.0593 C.ar    1  UNL1       -0.0344
      6 C          -3.3611   -0.9530   -0.0919 C.ar    1  UNL1       -0.0387
      7 C          -3.4887    0.4364   -0.2324 C.ar    1  UNL1        0.0293
      8 N          -4.7286    1.0641   -0.3964 N.pl3   1  UNL1       -0.3360
      9 C          -4.8184    2.5083   -0.1886 C.3     1  UNL1        0.0004
     10 C          -5.9467    0.3093   -0.1070 C.3     1  UNL1        0.0004
     11 C          -2.2815    1.1473   -0.2433 C.ar    1  UNL1       -0.0387
     12 C          -1.0335    0.5148   -0.0941 C.ar    1  UNL1       -0.0344
     13 N           1.4275   -0.5852    0.1256 N.ar    1  UNL1       -0.1633
     14 C           2.6429   -1.0141    0.2460 C.ar    1  UNL1        0.0920
     15 C           3.7615   -0.0347    0.1483 C.ar    1  UNL1        0.0034
     16 C           3.6273    1.0497   -0.7310 C.ar    1  UNL1       -0.0524
     17 C           4.6494    1.9934   -0.8479 C.ar    1  UNL1       -0.0598
     18 C           5.8061    1.8630   -0.0804 C.ar    1  UNL1       -0.0434
     19 C           5.9320    0.7938    0.8055 C.ar    1  UNL1        0.0416
     20 CL          7.3548    0.6444    1.7625 Cl      1  UNL1       -0.0835
     21 C           4.9166   -0.1549    0.9292 C.ar    1  UNL1       -0.0341
     22 C           3.0056   -2.4269    0.4492 C.ar    1  UNL1       -0.0288
     23 C           1.9939   -3.2872    0.5436 C.ar    1  UNL1        0.0068
     24 H          -2.1382   -2.6725    0.1580 H       1  UNL1        0.0639
     25 H          -4.2345   -1.5984   -0.0967 H       1  UNL1        0.0637
     26 H          -4.2129    3.0531   -0.9208 H       1  UNL1        0.0428
     27 H          -5.8453    2.8663   -0.3242 H       1  UNL1        0.0428
     28 H          -4.5052    2.7812    0.8253 H       1  UNL1        0.0428
     29 H          -5.9691   -0.0175    0.9385 H       1  UNL1        0.0428
     30 H          -6.8411    0.9178   -0.2828 H       1  UNL1        0.0428
     31 H          -6.0422   -0.5592   -0.7675 H       1  UNL1        0.0428
     32 H          -2.2665    2.2248   -0.3730 H       1  UNL1        0.0637
     33 H          -0.1489    1.1465   -0.1061 H       1  UNL1        0.0639
     34 H           2.7264    1.1613   -1.3325 H       1  UNL1        0.0624
     35 H           4.5411    2.8298   -1.5346 H       1  UNL1        0.0618
     36 H           6.5999    2.6002   -0.1715 H       1  UNL1        0.0632
     37 H           5.0274   -0.9595    1.6498 H       1  UNL1        0.0639
     38 H           4.0358   -2.7504    0.4889 H       1  UNL1        0.0641
     39 H           2.1538   -4.3490    0.6846 H       1  UNL1        0.0673
@<TRIPOS>BOND
     1     1     2    2
     2     2     3   ar
     3     3     4    1
     4     4     5   ar
     5     5     6   ar
     6     6     7   ar
     7     7     8    1
     8     8     9    1
     9     8    10    1
    10     7    11   ar
    11    11    12   ar
    12     3    13   ar
    13    13    14   ar
    14    14    15    1
    15    15    16   ar
    16    16    17   ar
    17    17    18   ar
    18    18    19   ar
    19    19    20    1
    20    19    21   ar
    21    14    22   ar
    22    22    23   ar
    23    23     2   ar
    24    12     4   ar
    25    21    15   ar
    26     5    24    1
    27     6    25    1
    28     9    26    1
    29     9    27    1
    30     9    28    1
    31    10    29    1
    32    10    30    1
    33    10    31    1
    34    11    32    1
    35    12    33    1
    36    16    34    1
    37    17    35    1
    38    18    36    1
    39    21    37    1
    40    22    38    1
    41    23    39    1
