@<TRIPOS>MOLECULE
*****
 46 48 0 0 0
SMALL
GASTEIGER

@<TRIPOS>ATOM
      1 O           0.8574    0.9512   -3.5895 O.2     1  UNL1       -0.2658
      2 C           0.0872    0.5093   -2.7386 C.ar    1  UNL1        0.2719
      3 N           0.3993   -0.0262   -1.4819 N.ar    1  UNL1       -0.1962
      4 C           1.7391   -0.1664   -0.9693 C.ar    1  UNL1        0.0694
      5 C           2.8815    0.1524   -1.7043 C.ar    1  UNL1       -0.0344
      6 C           4.1748   -0.0014   -1.1652 C.ar    1  UNL1       -0.0387
      7 C           4.4013   -0.4654    0.1381 C.ar    1  UNL1        0.0293
      8 N           5.6865   -0.6295    0.6704 N.pl3   1  UNL1       -0.3360
      9 C           6.8354   -0.1357   -0.0861 C.3     1  UNL1        0.0004
     10 C           5.8340   -0.5951    2.1257 C.3     1  UNL1        0.0004
     11 C           3.2491   -0.8018    0.8612 C.ar    1  UNL1       -0.0387
     12 C           1.9560   -0.6543    0.3273 C.ar    1  UNL1       -0.0344
     13 N          -0.5768   -0.4690   -0.6003 N.ar    1  UNL1       -0.1632
     14 C          -1.8222   -0.3883   -0.9465 C.ar    1  UNL1        0.0955
     15 C          -2.8619   -0.8801   -0.0026 C.ar    1  UNL1        0.0437
     16 C          -2.6405   -2.1339    0.5885 C.ar    1  UNL1       -0.0490
     17 C          -3.5704   -2.6631    1.4805 C.ar    1  UNL1       -0.0609
     18 C          -4.7198   -1.9406    1.7885 C.ar    1  UNL1       -0.0583
     19 C          -4.9368   -0.6819    1.2181 C.ar    1  UNL1       -0.0193
     20 C          -4.0054   -0.1312    0.3296 C.ar    1  UNL1        0.1297
     21 O          -4.1388    1.1051   -0.2454 O.3     1  UNL1       -0.4916
     22 C          -5.0542    2.0168    0.3601 C.3     1  UNL1        0.0868
     23 C          -4.8440    3.3775   -0.2790 C.3     1  UNL1       -0.0307
     24 C          -2.2912    0.1143   -2.2480 C.ar    1  UNL1       -0.0287
     25 C          -1.3525    0.5443   -3.0880 C.ar    1  UNL1        0.0068
     26 H           2.8273    0.5209   -2.7225 H       1  UNL1        0.0639
     27 H           5.0014    0.2667   -1.8164 H       1  UNL1        0.0637
     28 H           6.8930   -0.6042   -1.0746 H       1  UNL1        0.0428
     29 H           7.7747   -0.3876    0.4190 H       1  UNL1        0.0428
     30 H           6.7978    0.9538   -0.1952 H       1  UNL1        0.0428
     31 H           5.3457   -1.4547    2.5967 H       1  UNL1        0.0428
     32 H           5.4263    0.3330    2.5420 H       1  UNL1        0.0428
     33 H           6.8882   -0.6502    2.4191 H       1  UNL1        0.0428
     34 H           3.3181   -1.2051    1.8666 H       1  UNL1        0.0637
     35 H           1.1182   -0.9355    0.9606 H       1  UNL1        0.0639
     36 H          -1.7427   -2.7011    0.3498 H       1  UNL1        0.0625
     37 H          -3.3979   -3.6367    1.9328 H       1  UNL1        0.0618
     38 H          -5.4497   -2.3546    2.4808 H       1  UNL1        0.0619
     39 H          -5.8481   -0.1569    1.4878 H       1  UNL1        0.0654
     40 H          -6.0840    1.6912    0.1771 H       1  UNL1        0.0694
     41 H          -4.8681    2.0940    1.4376 H       1  UNL1        0.0694
     42 H          -5.0045    3.3246   -1.3609 H       1  UNL1        0.0262
     43 H          -3.8153    3.7209   -0.1257 H       1  UNL1        0.0262
     44 H          -5.5298    4.1170    0.1440 H       1  UNL1        0.0262
     45 H          -3.3430    0.1223   -2.4979 H       1  UNL1        0.0641
     46 H          -1.5948    0.9355   -4.0679 H       1  UNL1        0.0673
@<TRIPOS>BOND
     1     1     2    2
     2     2     3   ar
     3     3     4    1
     4     4     5   ar
     5     5     6   ar
     6     6     7   ar
     7     7     8    1
     8     8     9    1
     9     8    10    1
    10     7    11   ar
    11    11    12   ar
    12     3    13   ar
    13    13    14   ar
    14    14    15    1
    15    15    16   ar
    16    16    17   ar
    17    17    18   ar
    18    18    19   ar
    19    19    20   ar
    20    20    21    1
    21    21    22    1
    22    22    23    1
    23    14    24   ar
    24    24    25   ar
    25    25     2   ar
    26    12     4   ar
    27    20    15   ar
    28     5    26    1
    29     6    27    1
    30     9    28    1
    31     9    29    1
    32     9    30    1
    33    10    31    1
    34    10    32    1
    35    10    33    1
    36    11    34    1
    37    12    35    1
    38    16    36    1
    39    17    37    1
    40    18    38    1
    41    19    39    1
    42    22    40    1
    43    22    41    1
    44    23    42    1
    45    23    43    1
    46    23    44    1
    47    24    45    1
    48    25    46    1
