@<TRIPOS>MOLECULE
*****
 29 30 0 0 0
SMALL
GASTEIGER

@<TRIPOS>ATOM
      1 O           2.7531   -1.6792    1.6094 O.2     1  UNL1       -0.2658
      2 C           3.1526   -0.8284    0.8184 C.ar    1  UNL1        0.2720
      3 N           2.3950    0.0145   -0.0089 N.ar    1  UNL1       -0.1954
      4 C           0.9543    0.0213   -0.0589 C.ar    1  UNL1        0.0694
      5 C           0.1531   -0.8049    0.7303 C.ar    1  UNL1       -0.0344
      6 C          -1.2535   -0.7668    0.6485 C.ar    1  UNL1       -0.0387
      7 C          -1.9399    0.0855   -0.2282 C.ar    1  UNL1        0.0293
      8 N          -3.3367    0.1283   -0.2924 N.pl3   1  UNL1       -0.3360
      9 C          -3.9716    0.7968   -1.4269 C.3     1  UNL1        0.0004
     10 C          -4.1061   -0.9586    0.3106 C.3     1  UNL1        0.0004
     11 C          -1.1269    0.9236   -1.0023 C.ar    1  UNL1       -0.0387
     12 C           0.2777    0.8912   -0.9259 C.ar    1  UNL1       -0.0344
     13 N           2.9816    0.9336   -0.8730 N.ar    1  UNL1       -0.1516
     14 C           4.2692    1.0186   -0.9108 C.ar    1  UNL1        0.1501
     15 CL          4.9149    2.1822   -2.0083 Cl      1  UNL1       -0.0602
     16 C           5.1857    0.2097   -0.1011 C.ar    1  UNL1       -0.0179
     17 C           4.6255   -0.6724    0.7235 C.ar    1  UNL1        0.0076
     18 H           0.5716   -1.5063    1.4434 H       1  UNL1        0.0639
     19 H          -1.7919   -1.4383    1.3107 H       1  UNL1        0.0637
     20 H          -3.7219    1.8629   -1.4500 H       1  UNL1        0.0428
     21 H          -5.0641    0.7470   -1.3568 H       1  UNL1        0.0428
     22 H          -3.6799    0.3289   -2.3737 H       1  UNL1        0.0428
     23 H          -3.8567   -1.9209   -0.1501 H       1  UNL1        0.0428
     24 H          -3.9376   -1.0122    1.3915 H       1  UNL1        0.0428
     25 H          -5.1832   -0.8008    0.1835 H       1  UNL1        0.0428
     26 H          -1.5580    1.6399   -1.6947 H       1  UNL1        0.0637
     27 H           0.8265    1.5758   -1.5683 H       1  UNL1        0.0639
     28 H           6.2531    0.3476   -0.1941 H       1  UNL1        0.0650
     29 H           5.2142   -1.3184    1.3636 H       1  UNL1        0.0673
@<TRIPOS>BOND
     1     1     2    2
     2     2     3   ar
     3     3     4    1
     4     4     5   ar
     5     5     6   ar
     6     6     7   ar
     7     7     8    1
     8     8     9    1
     9     8    10    1
    10     7    11   ar
    11    11    12   ar
    12     3    13   ar
    13    13    14   ar
    14    14    15    1
    15    14    16   ar
    16    16    17   ar
    17    17     2   ar
    18    12     4   ar
    19     5    18    1
    20     6    19    1
    21     9    20    1
    22     9    21    1
    23     9    22    1
    24    10    23    1
    25    10    24    1
    26    10    25    1
    27    11    26    1
    28    12    27    1
    29    16    28    1
    30    17    29    1
