@<TRIPOS>MOLECULE
*****
 38 43 0 0 0
SMALL
GASTEIGER

@<TRIPOS>ATOM
      1 SI          0.0545   -1.8348   -1.3193 Si      1  UNL1        0.0000
      2 C          -0.7075   -0.4700   -0.3262 C.ar    1  UNL1        0.0000
      3 C           0.2938    0.3983    0.1505 C.ar    1  UNL1        0.0000
      4 N           0.0187    1.4789    0.9024 N.ar    1  UNL1        0.0000
      5 C          -1.2825    1.7181    1.1980 C.ar    1  UNL1        0.0000
      6 C          -2.3710    0.9464    0.7950 C.ar    1  UNL1        0.0000
      7 C          -3.7081    1.3325    1.1927 C.ar    1  UNL1        0.0000
      8 C          -4.8888    0.6409    0.8530 C.ar    1  UNL1        0.0000
      9 C          -4.5869   -0.4658    0.0809 C.ar    1  UNL1        0.0000
     10 C          -5.5134   -1.3467   -0.4119 C.ar    1  UNL1        0.0000
     11 N          -4.8171   -2.2970   -1.1204 N.ar    1  UNL1        0.0000
     12 C          -3.4626   -2.0255   -1.0798 C.ar    1  UNL1        0.0000
     13 C          -3.2825   -0.8834   -0.3345 C.ar    1  UNL1        0.0000
     14 C          -2.0659   -0.2037   -0.0064 C.ar    1  UNL1        0.0000
     15 C           1.6912    0.0574   -0.2232 C.ar    1  UNL1        0.0000
     16 C           1.7534   -1.1215   -1.0190 C.ar    1  UNL1        0.0000
     17 C           2.9579   -1.6321   -1.4864 C.ar    1  UNL1        0.0000
     18 C           4.1345   -0.9657   -1.1629 C.ar    1  UNL1        0.0000
     19 C           4.1243    0.2017   -0.3802 C.ar    1  UNL1        0.0000
     20 C           5.3433    0.8347   -0.0834 C.ar    1  UNL1        0.0000
     21 C           5.3863    1.9932    0.6879 C.ar    1  UNL1        0.0000
     22 C           4.2066    2.5349    1.1735 C.ar    1  UNL1        0.0000
     23 C           2.9855    1.9174    0.8874 C.ar    1  UNL1        0.0000
     24 C           2.8987    0.7382    0.1067 C.ar    1  UNL1        0.0000
     25 H          -0.1074   -3.1779   -0.7035 H       1  UNL1        0.0000
     26 H          -0.3216   -1.8033   -2.7570 H       1  UNL1        0.0000
     27 H          -1.4286    2.6072    1.8083 H       1  UNL1        0.0000
     28 H          -3.8250    2.2293    1.8051 H       1  UNL1        0.0000
     29 H          -5.8759    0.9510    1.1633 H       1  UNL1        0.0000
     30 H          -6.5909   -1.3936   -0.3310 H       1  UNL1        0.0000
     31 H          -5.2349   -3.0826   -1.6024 H       1  UNL1        0.0000
     32 H          -2.7887   -2.6911   -1.5954 H       1  UNL1        0.0000
     33 H           2.9981   -2.5327   -2.0936 H       1  UNL1        0.0000
     34 H           5.0766   -1.3685   -1.5309 H       1  UNL1        0.0000
     35 H           6.2804    0.4254   -0.4552 H       1  UNL1        0.0000
     36 H           6.3379    2.4689    0.9072 H       1  UNL1        0.0000
     37 H           4.2255    3.4386    1.7767 H       1  UNL1        0.0000
     38 H           2.0919    2.3829    1.2922 H       1  UNL1        0.0000
@<TRIPOS>BOND
     1     1     2    1
     2     2     3   ar
     3     3     4   ar
     4     4     5   ar
     5     5     6   ar
     6     6     7   ar
     7     7     8   ar
     8     8     9   ar
     9     9    10   ar
    10    10    11   ar
    11    11    12   ar
    12    12    13   ar
    13    13    14   ar
    14     3    15    1
    15    15    16   ar
    16    16    17   ar
    17    17    18   ar
    18    18    19   ar
    19    19    20   ar
    20    20    21   ar
    21    21    22   ar
    22    22    23   ar
    23    23    24   ar
    24    16     1    1
    25    24    19   ar
    26     2    14   ar
    27    24    15   ar
    28    14     6   ar
    29    13     9   ar
    30     1    25    1
    31     1    26    1
    32     5    27    1
    33     7    28    1
    34     8    29    1
    35    10    30    1
    36    11    31    1
    37    12    32    1
    38    17    33    1
    39    18    34    1
    40    20    35    1
    41    21    36    1
    42    22    37    1
    43    23    38    1
