@<TRIPOS>MOLECULE
*****
 28 30 0 0 0
SMALL
GASTEIGER

@<TRIPOS>ATOM
      1 O          -3.1810   -1.5024   -1.5223 O.2     1  UNL1       -0.2658
      2 C          -2.0480   -1.1589   -1.1887 C.ar    1  UNL1        0.2724
      3 N          -1.6774   -0.2972   -0.1507 N.ar    1  UNL1       -0.1895
      4 C          -2.6630    0.2808    0.6687 C.ar    1  UNL1        0.1064
      5 C          -4.0412    0.1617    0.6634 C.ar    1  UNL1       -0.0289
      6 C          -4.6729    0.9315    1.6868 C.ar    1  UNL1       -0.0526
      7 C          -3.7592    1.6193    2.4488 C.ar    1  UNL1       -0.0223
      8 S          -2.1579    1.3355    1.9311 S.2     1  UNL1       -0.0776
      9 N          -0.3605    0.0332    0.1154 N.ar    1  UNL1       -0.1628
     10 C           0.5777   -0.4736   -0.6182 C.ar    1  UNL1        0.0920
     11 C           1.9925   -0.1042   -0.3274 C.ar    1  UNL1        0.0034
     12 C           2.9500    0.0217   -1.3436 C.ar    1  UNL1       -0.0524
     13 C           4.2636    0.3786   -1.0287 C.ar    1  UNL1       -0.0598
     14 C           4.6231    0.6183    0.2976 C.ar    1  UNL1       -0.0434
     15 C           3.6666    0.5092    1.3058 C.ar    1  UNL1        0.0416
     16 CL          4.1136    0.8140    2.9391 Cl      1  UNL1       -0.0835
     17 C           2.3540    0.1547    1.0015 C.ar    1  UNL1       -0.0341
     18 C           0.3406   -1.4239   -1.7200 C.ar    1  UNL1       -0.0288
     19 C          -0.9299   -1.7334   -1.9738 C.ar    1  UNL1        0.0068
     20 H          -4.5989   -0.4471   -0.0363 H       1  UNL1        0.0644
     21 H          -5.7427    0.9740    1.8500 H       1  UNL1        0.0624
     22 H          -3.9525    2.2757    3.2859 H       1  UNL1        0.0694
     23 H           2.6892   -0.1257   -2.3882 H       1  UNL1        0.0624
     24 H           5.0055    0.4802   -1.8177 H       1  UNL1        0.0618
     25 H           5.6457    0.8984    0.5383 H       1  UNL1        0.0632
     26 H           1.6149    0.0784    1.7964 H       1  UNL1        0.0639
     27 H           1.1562   -1.8695   -2.2712 H       1  UNL1        0.0641
     28 H          -1.2080   -2.4293   -2.7556 H       1  UNL1        0.0673
@<TRIPOS>BOND
     1     1     2    2
     2     2     3   ar
     3     3     4    1
     4     4     5   ar
     5     5     6   ar
     6     6     7   ar
     7     7     8   ar
     8     3     9   ar
     9     9    10   ar
    10    10    11    1
    11    11    12   ar
    12    12    13   ar
    13    13    14   ar
    14    14    15   ar
    15    15    16    1
    16    15    17   ar
    17    10    18   ar
    18    18    19   ar
    19    19     2   ar
    20     8     4   ar
    21    17    11   ar
    22     5    20    1
    23     6    21    1
    24     7    22    1
    25    12    23    1
    26    13    24    1
    27    14    25    1
    28    17    26    1
    29    18    27    1
    30    19    28    1
