@<TRIPOS>MOLECULE
*****
 33 36 0 0 0
SMALL
GASTEIGER

@<TRIPOS>ATOM
      1 O           1.5041   -2.3432   -2.3240 O.2     1  UNL1       -0.2658
      2 C           0.5118   -1.8437   -1.7984 C.ar    1  UNL1        0.2737
      3 N           0.4426   -0.7946   -0.8813 N.ar    1  UNL1       -0.1713
      4 C           1.6374   -0.1831   -0.4791 C.ar    1  UNL1        0.1982
      5 N           2.8563   -0.4752   -0.8750 N.ar    1  UNL1       -0.2210
      6 C           3.7819    0.3453   -0.2592 C.ar    1  UNL1        0.0805
      7 C           5.1779    0.3063   -0.4507 C.ar    1  UNL1       -0.0351
      8 C           6.0006    1.2008    0.2416 C.ar    1  UNL1       -0.0597
      9 C           5.4493    2.1297    1.1186 C.ar    1  UNL1       -0.0606
     10 C           4.0674    2.1881    1.3254 C.ar    1  UNL1       -0.0458
     11 C           3.2519    1.2842    0.6241 C.ar    1  UNL1        0.0410
     12 S           1.5434    1.1069    0.6603 S.2     1  UNL1       -0.0477
     13 N          -0.7479   -0.3321   -0.3395 N.ar    1  UNL1       -0.1615
     14 C          -1.8573   -0.8960   -0.6990 C.ar    1  UNL1        0.0920
     15 C          -3.1380   -0.4082   -0.1117 C.ar    1  UNL1        0.0021
     16 C          -3.2562    0.9528    0.2010 C.ar    1  UNL1       -0.0525
     17 C          -4.4380    1.4470    0.7558 C.ar    1  UNL1       -0.0611
     18 C          -5.5027    0.5840    1.0100 C.ar    1  UNL1       -0.0617
     19 C          -5.3858   -0.7745    0.7174 C.ar    1  UNL1       -0.0611
     20 C          -4.2052   -1.2736    0.1613 C.ar    1  UNL1       -0.0525
     21 C          -1.9446   -1.9885   -1.6855 C.ar    1  UNL1       -0.0288
     22 C          -0.7938   -2.4247   -2.1950 C.ar    1  UNL1        0.0068
     23 H           5.6006   -0.4215   -1.1366 H       1  UNL1        0.0639
     24 H           7.0770    1.1666    0.0906 H       1  UNL1        0.0618
     25 H           6.1002    2.8199    1.6513 H       1  UNL1        0.0618
     26 H           3.6376    2.9128    2.0101 H       1  UNL1        0.0629
     27 H          -2.4306    1.6360    0.0118 H       1  UNL1        0.0624
     28 H          -4.5251    2.5045    0.9931 H       1  UNL1        0.0618
     29 H          -6.4214    0.9695    1.4460 H       1  UNL1        0.0618
     30 H          -6.2129   -1.4471    0.9327 H       1  UNL1        0.0618
     31 H          -4.1307   -2.3410   -0.0250 H       1  UNL1        0.0624
     32 H          -2.8962   -2.3916   -2.0016 H       1  UNL1        0.0641
     33 H          -0.7536   -3.2160   -2.9335 H       1  UNL1        0.0673
@<TRIPOS>BOND
     1     1     2    2
     2     2     3   ar
     3     3     4    1
     4     4     5   ar
     5     5     6   ar
     6     6     7   ar
     7     7     8   ar
     8     8     9   ar
     9     9    10   ar
    10     6    11   ar
    11    11    12   ar
    12     3    13   ar
    13    13    14   ar
    14    14    15    1
    15    15    16   ar
    16    16    17   ar
    17    17    18   ar
    18    18    19   ar
    19    19    20   ar
    20    14    21   ar
    21    21    22   ar
    22    22     2   ar
    23    12     4   ar
    24    11    10   ar
    25    20    15   ar
    26     7    23    1
    27     8    24    1
    28     9    25    1
    29    10    26    1
    30    16    27    1
    31    17    28    1
    32    18    29    1
    33    19    30    1
    34    20    31    1
    35    21    32    1
    36    22    33    1
