@<TRIPOS>MOLECULE
*****
 44 46 0 0 0
SMALL
GASTEIGER

@<TRIPOS>ATOM
      1 O           5.6796   -1.8321   -0.3188 O.2     1  UNL1       -0.2519
      2 C           4.7020   -1.1002   -0.1815 C.2     1  UNL1        0.3139
      3 N           3.3977   -1.5350   -0.4169 N.am    1  UNL1       -0.2424
      4 C           2.4025   -0.5100   -0.5092 C.3     1  UNL1        0.2597
      5 N           0.9908   -0.9330   -0.6327 N.2     1  UNL1       -0.0543
      6 C           0.3454    0.0311    0.0013 C.2     1  UNL1        0.3177
      7 N           1.1287    0.9629    0.6947 N.pl3   1  UNL1       -0.2062
      8 C           2.4473    0.3208    0.7595 C.3     1  UNL1        0.2287
      9 C           3.7531    1.0618    0.6784 C.2     1  UNL1        0.2720
     10 N           4.8145    0.2478    0.2259 N.am    1  UNL1       -0.2254
     11 C           6.1556    0.7945    0.3076 C.3     1  UNL1        0.0125
     12 O           3.8964    2.2291    1.0392 O.2     1  UNL1       -0.2704
     13 C           1.0680    2.3745    0.3357 C.3     1  UNL1        0.0706
     14 C          -1.1408    0.0586    0.0154 C.ar    1  UNL1        0.0653
     15 C          -1.8577   -0.6102   -0.9723 C.ar    1  UNL1       -0.0451
     16 C          -3.2604   -0.5873   -0.9630 C.ar    1  UNL1       -0.0399
     17 C          -3.9968    0.0806    0.0334 C.ar    1  UNL1        0.0292
     18 N          -5.3968    0.1167    0.0270 N.pl3   1  UNL1       -0.3360
     19 C          -6.1259   -0.8099   -0.8380 C.3     1  UNL1        0.0004
     20 C          -6.0990    0.5257    1.2427 C.3     1  UNL1        0.0004
     21 C          -3.2373    0.7458    1.0145 C.ar    1  UNL1       -0.0399
     22 C          -1.8342    0.7321    1.0166 C.ar    1  UNL1       -0.0451
     23 C           3.1530   -2.8152   -1.0492 C.3     1  UNL1        0.0087
     24 H           2.6396    0.0846   -1.4061 H       1  UNL1        0.1098
     25 H           2.4750   -0.3052    1.6626 H       1  UNL1        0.0926
     26 H           6.1473    1.8835    0.2076 H       1  UNL1        0.0434
     27 H           6.7931    0.3745   -0.4763 H       1  UNL1        0.0434
     28 H           6.5741    0.5309    1.2840 H       1  UNL1        0.0434
     29 H           1.5966    2.5666   -0.6040 H       1  UNL1        0.0689
     30 H           0.0346    2.7116    0.2104 H       1  UNL1        0.0689
     31 H           1.5052    2.9873    1.1294 H       1  UNL1        0.0689
     32 H          -1.3375   -1.1496   -1.7600 H       1  UNL1        0.0627
     33 H          -3.7596   -1.1159   -1.7693 H       1  UNL1        0.0636
     34 H          -5.9030   -1.8504   -0.5775 H       1  UNL1        0.0428
     35 H          -5.8917   -0.6350   -1.8936 H       1  UNL1        0.0428
     36 H          -7.2089   -0.6704   -0.7455 H       1  UNL1        0.0428
     37 H          -5.8499   -0.1327    2.0823 H       1  UNL1        0.0428
     38 H          -5.8657    1.5631    1.5053 H       1  UNL1        0.0428
     39 H          -7.1857    0.4892    1.1059 H       1  UNL1        0.0428
     40 H          -3.7197    1.2992    1.8143 H       1  UNL1        0.0636
     41 H          -1.3004    1.2434    1.8128 H       1  UNL1        0.0627
     42 H           3.9802   -3.5062   -0.8644 H       1  UNL1        0.0430
     43 H           2.2359   -3.2534   -0.6466 H       1  UNL1        0.0430
     44 H           3.0549   -2.6640   -2.1283 H       1  UNL1        0.0430
@<TRIPOS>BOND
     1     1     2    2
     2     2     3   am
     3     3     4    1
     4     4     5    1
     5     5     6    2
     6     6     7    1
     7     7     8    1
     8     8     9    1
     9     9    10   am
    10    10    11    1
    11     9    12    2
    12     7    13    1
    13     6    14    1
    14    14    15   ar
    15    15    16   ar
    16    16    17   ar
    17    17    18    1
    18    18    19    1
    19    18    20    1
    20    17    21   ar
    21    21    22   ar
    22     3    23    1
    23    10     2   am
    24    22    14   ar
    25     8     4    1
    26     4    24    1
    27     8    25    1
    28    11    26    1
    29    11    27    1
    30    11    28    1
    31    13    29    1
    32    13    30    1
    33    13    31    1
    34    15    32    1
    35    16    33    1
    36    19    34    1
    37    19    35    1
    38    19    36    1
    39    20    37    1
    40    20    38    1
    41    20    39    1
    42    21    40    1
    43    22    41    1
    44    23    42    1
    45    23    43    1
    46    23    44    1
