@<TRIPOS>MOLECULE
*****
 32 35 0 0 0
SMALL
GASTEIGER

@<TRIPOS>ATOM
      1 O           0.9398   -1.5687   -2.1901 O.2     1  UNL1       -0.2651
      2 C           0.1725   -1.0077   -1.4318 C.ar    1  UNL1        0.2808
      3 N          -1.2051   -0.9631   -1.5229 N.ar    1  UNL1       -0.2077
      4 C          -1.6307   -0.2161   -0.5352 C.ar    1  UNL1        0.0881
      5 C          -3.0535    0.0759   -0.2948 C.ar    1  UNL1        0.0012
      6 C          -3.4879    1.2180    0.3831 C.ar    1  UNL1       -0.0525
      7 C          -4.8546    1.4419    0.5746 C.ar    1  UNL1       -0.0611
      8 C          -5.7916    0.5354    0.0816 C.ar    1  UNL1       -0.0617
      9 C          -5.3664   -0.5954   -0.6114 C.ar    1  UNL1       -0.0611
     10 C          -4.0023   -0.8228   -0.8034 C.ar    1  UNL1       -0.0525
     11 C          -0.5466    0.2556    0.2837 C.ar    1  UNL1        0.0816
     12 C           0.5466   -0.2556   -0.2581 C.ar    1  UNL1        0.0816
     13 C           1.6307    0.2161    0.5607 C.ar    1  UNL1        0.0881
     14 C           3.0535   -0.0759    0.3203 C.ar    1  UNL1        0.0012
     15 C           4.0023    0.8229    0.8289 C.ar    1  UNL1       -0.0525
     16 C           5.3664    0.5954    0.6369 C.ar    1  UNL1       -0.0611
     17 C           5.7916   -0.5353   -0.0561 C.ar    1  UNL1       -0.0617
     18 C           4.8547   -1.4419   -0.5491 C.ar    1  UNL1       -0.0611
     19 C           3.4879   -1.2180   -0.3575 C.ar    1  UNL1       -0.0525
     20 N           1.2051    0.9631    1.5484 N.ar    1  UNL1       -0.2077
     21 C          -0.1725    1.0077    1.4574 C.ar    1  UNL1        0.2808
     22 O          -0.9398    1.5687    2.2156 O.2     1  UNL1       -0.2651
     23 H          -2.7959    1.9651    0.7576 H       1  UNL1        0.0624
     24 H          -5.1876    2.3304    1.1067 H       1  UNL1        0.0618
     25 H          -6.8535    0.7146    0.2320 H       1  UNL1        0.0618
     26 H          -6.0954   -1.2996   -1.0049 H       1  UNL1        0.0618
     27 H          -3.6872   -1.7091   -1.3515 H       1  UNL1        0.0624
     28 H           3.6872    1.7091    1.3770 H       1  UNL1        0.0624
     29 H           6.0954    1.2996    1.0304 H       1  UNL1        0.0618
     30 H           6.8535   -0.7146   -0.2065 H       1  UNL1        0.0618
     31 H           5.1877   -2.3303   -1.0812 H       1  UNL1        0.0618
     32 H           2.7959   -1.9651   -0.7320 H       1  UNL1        0.0624
@<TRIPOS>BOND
     1     1     2    2
     2     2     3   ar
     3     3     4   ar
     4     4     5    1
     5     5     6   ar
     6     6     7   ar
     7     7     8   ar
     8     8     9   ar
     9     9    10   ar
    10     4    11   ar
    11    11    12    2
    12    12    13   ar
    13    13    14    1
    14    14    15   ar
    15    15    16   ar
    16    16    17   ar
    17    17    18   ar
    18    18    19   ar
    19    13    20   ar
    20    20    21   ar
    21    21    22    2
    22    12     2   ar
    23    10     5   ar
    24    21    11   ar
    25    19    14   ar
    26     6    23    1
    27     7    24    1
    28     8    25    1
    29     9    26    1
    30    10    27    1
    31    15    28    1
    32    16    29    1
    33    17    30    1
    34    18    31    1
    35    19    32    1
