@<TRIPOS>MOLECULE
*****
 26 28 0 0 0
SMALL
GASTEIGER

@<TRIPOS>ATOM
      1 O           0.1358    0.3313   -1.8249 O.2     1  UNL1       -0.2703
      2 C           0.6187    0.0781   -0.7337 C.2     1  UNL1        0.2765
      3 N           1.9344    0.1206   -0.4329 N.am    1  UNL1       -0.2464
      4 C           3.0774    0.5694   -1.1801 C.3     1  UNL1        0.0311
      5 C           4.3052    0.1146   -0.3987 C.3     1  UNL1        0.0172
      6 S           3.7371   -0.0145    1.3409 S.3     1  UNL1       -0.0887
      7 C           2.0866   -0.1346    0.8662 C.2     1  UNL1        0.1612
      8 N           1.0555   -0.4257    1.5773 N.2     1  UNL1       -0.2193
      9 C          -0.0887   -0.3363    0.5733 C.3     1  UNL1        0.3014
     10 N          -1.0198    0.7094    1.0703 N.pl3   1  UNL1       -0.2850
     11 C          -2.2673    0.7321    0.5419 C.ar    1  UNL1        0.1603
     12 N          -3.2685    0.1283    1.1333 N.ar    1  UNL1       -0.2333
     13 C          -4.4304    0.3207    0.4120 C.ar    1  UNL1        0.0368
     14 C          -4.3050    1.1002   -0.7156 C.ar    1  UNL1       -0.0030
     15 S          -2.6800    1.6152   -0.8745 S.2     1  UNL1       -0.0608
     16 C          -0.6753   -1.7545    0.3000 C.3     1  UNL1        0.4403
     17 F          -1.6062   -1.7763   -0.6795 F       1  UNL1       -0.1660
     18 F          -1.2430   -2.2823    1.4129 F       1  UNL1       -0.1660
     19 F           0.3065   -2.6184   -0.0784 F       1  UNL1       -0.1660
     20 H           3.0486    0.1717   -2.1990 H       1  UNL1        0.0477
     21 H           3.0282    1.6628   -1.2423 H       1  UNL1        0.0477
     22 H           4.6204   -0.8819   -0.7242 H       1  UNL1        0.0396
     23 H           5.1454    0.8060   -0.5016 H       1  UNL1        0.0396
     24 H          -1.0994    0.5083    2.0676 H       1  UNL1        0.1510
     25 H          -5.3509   -0.1325    0.7594 H       1  UNL1        0.0835
     26 H          -5.0653    1.3881   -1.4266 H       1  UNL1        0.0709
@<TRIPOS>BOND
     1     1     2    2
     2     2     3   am
     3     3     4    1
     4     4     5    1
     5     5     6    1
     6     6     7    1
     7     7     8    2
     8     8     9    1
     9     9    10    1
    10    10    11    1
    11    11    12   ar
    12    12    13   ar
    13    13    14   ar
    14    14    15   ar
    15     9    16    1
    16    16    17    1
    17    16    18    1
    18    16    19    1
    19     9     2    1
    20    15    11   ar
    21     7     3    1
    22     4    20    1
    23     4    21    1
    24     5    22    1
    25     5    23    1
    26    10    24    1
    27    13    25    1
    28    14    26    1
