@<TRIPOS>MOLECULE
*****
 28 29 0 0 0
SMALL
GASTEIGER

@<TRIPOS>ATOM
      1 O           1.7867   -2.8816   -1.1952 O.2     1  UNL1       -0.2654
      2 C           1.3369   -1.7816   -0.9231 C.ar    1  UNL1        0.2778
      3 N           0.0292   -1.3138   -0.9985 N.ar    1  UNL1       -0.1753
      4 N           0.0169    0.0193   -0.5451 N.ar    1  UNL1       -0.2490
      5 C          -1.1609    0.2199    0.1729 C.ar    1  UNL1        0.0634
      6 C          -1.5538    1.5496    0.7461 C.3     1  UNL1        0.0364
      7 N          -1.8001    2.5414   -0.2959 N.3     1  UNL1       -0.3249
      8 C          -1.8873   -0.9140    0.2389 C.ar    1  UNL1        0.0383
      9 C          -3.1973   -1.2441    0.8430 C.3     1  UNL1       -0.0327
     10 C          -1.0780   -1.9586   -0.4580 C.ar    1  UNL1        0.2779
     11 O          -1.4288   -3.1216   -0.5602 O.2     1  UNL1       -0.2654
     12 C           1.3284    0.3865   -0.2590 C.ar    1  UNL1        0.0469
     13 C           1.7039    1.7489    0.2194 C.3     1  UNL1       -0.0219
     14 C           2.1849   -0.6219   -0.5142 C.ar    1  UNL1        0.0367
     15 C           3.6539   -0.7539   -0.3954 C.3     1  UNL1       -0.0328
     16 H          -2.4586    1.4689    1.3564 H       1  UNL1        0.0487
     17 H          -0.7804    1.9168    1.4256 H       1  UNL1        0.0487
     18 H          -1.0094    2.5587   -0.9387 H       1  UNL1        0.1186
     19 H          -2.6017    2.2490   -0.8540 H       1  UNL1        0.1186
     20 H          -3.8805   -1.6331    0.0812 H       1  UNL1        0.0280
     21 H          -3.6760   -0.3749    1.3010 H       1  UNL1        0.0280
     22 H          -3.0782   -2.0065    1.6193 H       1  UNL1        0.0280
     23 H           1.4493    1.8724    1.2756 H       1  UNL1        0.0293
     24 H           1.1944    2.5207   -0.3644 H       1  UNL1        0.0293
     25 H           2.7766    1.9388    0.1179 H       1  UNL1        0.0293
     26 H           4.1183    0.1426    0.0237 H       1  UNL1        0.0280
     27 H           4.1000   -0.9347   -1.3784 H       1  UNL1        0.0280
     28 H           3.9117   -1.5931    0.2587 H       1  UNL1        0.0280
@<TRIPOS>BOND
     1     1     2    2
     2     2     3   ar
     3     3     4   ar
     4     4     5   ar
     5     5     6    1
     6     6     7    1
     7     5     8   ar
     8     8     9    1
     9     8    10   ar
    10    10    11    2
    11     4    12   ar
    12    12    13    1
    13    12    14   ar
    14    14    15    1
    15    14     2   ar
    16    10     3   ar
    17     6    16    1
    18     6    17    1
    19     7    18    1
    20     7    19    1
    21     9    20    1
    22     9    21    1
    23     9    22    1
    24    13    23    1
    25    13    24    1
    26    13    25    1
    27    15    26    1
    28    15    27    1
    29    15    28    1
