@<TRIPOS>MOLECULE
*****
 33 34 0 0 0
SMALL
GASTEIGER

@<TRIPOS>ATOM
      1 O          -2.9354    2.2843    1.7513 O.2     1  UNL1       -0.2654
      2 C          -2.2014    1.4336    1.2787 C.ar    1  UNL1        0.2778
      3 N          -0.9899    1.5769    0.6119 N.ar    1  UNL1       -0.1753
      4 N          -0.5371    0.2918    0.2442 N.ar    1  UNL1       -0.2495
      5 C           0.0737    0.3948   -1.0043 C.ar    1  UNL1        0.0597
      6 C           0.7646   -0.7424   -1.6931 C.3     1  UNL1        0.0369
      7 S           2.5698   -0.6627   -1.4718 S.3     1  UNL1       -0.1432
      8 C           2.6757   -0.9523    0.3215 C.3     1  UNL1        0.0913
      9 C           4.1111   -1.1726    0.7235 C.2     1  UNL1        0.3147
     10 O           4.7741   -0.0271    0.9818 O.3     1  UNL1       -0.4800
     11 O           4.6772   -2.2508    0.8141 O.2     1  UNL1       -0.2501
     12 C          -0.0161    1.6523   -1.4847 C.ar    1  UNL1        0.0378
     13 C           0.4695    2.2861   -2.7310 C.3     1  UNL1       -0.0328
     14 C          -0.7827    2.4291   -0.4677 C.ar    1  UNL1        0.2779
     15 O          -1.0709    3.6063   -0.5968 O.2     1  UNL1       -0.2654
     16 C          -1.4500   -0.6365    0.7381 C.ar    1  UNL1        0.0469
     17 C          -1.2920   -2.1085    0.5592 C.3     1  UNL1       -0.0219
     18 C          -2.4438   -0.0329    1.4188 C.ar    1  UNL1        0.0367
     19 C          -3.6341   -0.5430    2.1357 C.3     1  UNL1       -0.0328
     20 H           0.5623   -0.7017   -2.7692 H       1  UNL1        0.0440
     21 H           0.4170   -1.7219   -1.3662 H       1  UNL1        0.0440
     22 H           2.2756   -0.1039    0.8846 H       1  UNL1        0.0490
     23 H           2.1090   -1.8459    0.5992 H       1  UNL1        0.0490
     24 H           5.6906   -0.3163    1.1749 H       1  UNL1        0.2951
     25 H           0.9863    1.5752   -3.3816 H       1  UNL1        0.0280
     26 H           1.1688    3.0957   -2.4995 H       1  UNL1        0.0280
     27 H          -0.3678    2.7056   -3.2976 H       1  UNL1        0.0280
     28 H          -1.9471   -2.6792    1.2238 H       1  UNL1        0.0293
     29 H          -1.5334   -2.3998   -0.4673 H       1  UNL1        0.0293
     30 H          -0.2679   -2.4176    0.7886 H       1  UNL1        0.0293
     31 H          -4.5472   -0.0976    1.7278 H       1  UNL1        0.0280
     32 H          -3.7346   -1.6284    2.0541 H       1  UNL1        0.0280
     33 H          -3.5740   -0.2908    3.1991 H       1  UNL1        0.0280
@<TRIPOS>BOND
     1     1     2    2
     2     2     3   ar
     3     3     4   ar
     4     4     5   ar
     5     5     6    1
     6     6     7    1
     7     7     8    1
     8     8     9    1
     9     9    10    1
    10     9    11    2
    11     5    12   ar
    12    12    13    1
    13    12    14   ar
    14    14    15    2
    15     4    16   ar
    16    16    17    1
    17    16    18   ar
    18    18    19    1
    19    18     2   ar
    20    14     3   ar
    21     6    20    1
    22     6    21    1
    23     8    22    1
    24     8    23    1
    25    10    24    1
    26    13    25    1
    27    13    26    1
    28    13    27    1
    29    17    28    1
    30    17    29    1
    31    17    30    1
    32    19    31    1
    33    19    32    1
    34    19    33    1
