@<TRIPOS>MOLECULE
*****
 42 46 0 0 0
SMALL
GASTEIGER

@<TRIPOS>ATOM
      1 O           7.1096   -1.4529    0.8941 O.2     1  UNL1       -0.2698
      2 C           6.3256   -0.8106    0.2258 C.2     1  UNL1        0.2512
      3 N           6.5968    0.0379   -0.8033 N.am    1  UNL1       -0.2483
      4 C           5.4698    0.5927   -1.3275 C.2     1  UNL1        0.2513
      5 O           5.3814    1.3849   -2.2432 O.2     1  UNL1       -0.2698
      6 C           4.3485    0.0484   -0.5630 C.ar    1  UNL1        0.0498
      7 C           2.9905    0.2756   -0.6799 C.ar    1  UNL1       -0.0412
      8 C           2.1281   -0.3974    0.2064 C.ar    1  UNL1       -0.0171
      9 C           0.6712   -0.1971    0.1314 C.ar    1  UNL1       -0.0172
     10 C           0.1132    1.0867    0.1691 C.ar    1  UNL1       -0.0491
     11 C          -1.2781    1.2875    0.0998 C.ar    1  UNL1       -0.0255
     12 C          -2.1539    0.1922   -0.0373 C.ar    1  UNL1        0.0361
     13 C          -1.5984   -1.1027   -0.0541 C.ar    1  UNL1       -0.0255
     14 C          -0.2046   -1.2839    0.0177 C.ar    1  UNL1       -0.0491
     15 C          -2.4743   -2.3210   -0.2095 C.3     1  UNL1       -0.0245
     16 C          -3.9305   -2.0201    0.1102 C.3     1  UNL1       -0.0332
     17 C          -4.3437   -0.7355   -0.5884 C.3     1  UNL1        0.0125
     18 N          -3.5427    0.3818   -0.0917 N.pl3   1  UNL1       -0.3294
     19 C          -4.0142    1.7243   -0.4265 C.3     1  UNL1        0.0125
     20 C          -3.2906    2.7546    0.4244 C.3     1  UNL1       -0.0332
     21 C          -1.8013    2.7023    0.1202 C.3     1  UNL1       -0.0245
     22 C           2.6869   -1.2746    1.1775 C.ar    1  UNL1       -0.0533
     23 C           4.0679   -1.4892    1.2763 C.ar    1  UNL1       -0.0483
     24 C           4.8722   -0.8100    0.3872 C.ar    1  UNL1        0.0492
     25 H           7.5263    0.2354   -1.1371 H       1  UNL1        0.1581
     26 H           2.6121    0.9479   -1.4449 H       1  UNL1        0.0631
     27 H           0.7645    1.9539    0.2659 H       1  UNL1        0.0627
     28 H           0.1966   -2.2950   -0.0289 H       1  UNL1        0.0627
     29 H          -2.1237   -3.1252    0.4481 H       1  UNL1        0.0314
     30 H          -2.3898   -2.6746   -1.2447 H       1  UNL1        0.0314
     31 H          -4.5645   -2.8540   -0.2103 H       1  UNL1        0.0283
     32 H          -4.0588   -1.9104    1.1950 H       1  UNL1        0.0283
     33 H          -4.2347   -0.8276   -1.6766 H       1  UNL1        0.0464
     34 H          -5.4042   -0.5485   -0.3822 H       1  UNL1        0.0464
     35 H          -5.0899    1.7969   -0.2276 H       1  UNL1        0.0464
     36 H          -3.8662    1.9239   -1.4955 H       1  UNL1        0.0464
     37 H          -3.4613    2.5433    1.4881 H       1  UNL1        0.0283
     38 H          -3.6786    3.7596    0.2254 H       1  UNL1        0.0283
     39 H          -1.2634    3.2939    0.8703 H       1  UNL1        0.0314
     40 H          -1.6098    3.1531   -0.8615 H       1  UNL1        0.0314
     41 H           2.0281   -1.7895    1.8774 H       1  UNL1        0.0624
     42 H           4.4881   -2.1571    2.0211 H       1  UNL1        0.0625
@<TRIPOS>BOND
     1     1     2    2
     2     2     3   am
     3     3     4   am
     4     4     5    2
     5     4     6    1
     6     6     7   ar
     7     7     8   ar
     8     8     9    1
     9     9    10   ar
    10    10    11   ar
    11    11    12   ar
    12    12    13   ar
    13    13    14   ar
    14    13    15    1
    15    15    16    1
    16    16    17    1
    17    17    18    1
    18    18    19    1
    19    19    20    1
    20    20    21    1
    21     8    22   ar
    22    22    23   ar
    23    23    24   ar
    24    24     2    1
    25    24     6   ar
    26    14     9   ar
    27    21    11    1
    28    18    12    1
    29     3    25    1
    30     7    26    1
    31    10    27    1
    32    14    28    1
    33    15    29    1
    34    15    30    1
    35    16    31    1
    36    16    32    1
    37    17    33    1
    38    17    34    1
    39    19    35    1
    40    19    36    1
    41    20    37    1
    42    20    38    1
    43    21    39    1
    44    21    40    1
    45    22    41    1
    46    23    42    1
