@<TRIPOS>MOLECULE
*****
 33 37 0 0 0
SMALL
GASTEIGER

@<TRIPOS>ATOM
      1 O           6.6844   -0.7384   -0.2573 O.2     1  UNL1       -0.2698
      2 C           5.8090    0.0842   -0.0832 C.2     1  UNL1        0.2512
      3 N           5.9416    1.4135    0.1765 N.am    1  UNL1       -0.2483
      4 C           4.7388    2.0355    0.3158 C.2     1  UNL1        0.2513
      5 O           4.5235    3.2071    0.5493 O.2     1  UNL1       -0.2698
      6 C           3.7180    1.0055    0.1275 C.ar    1  UNL1        0.0498
      7 C           2.3387    1.0937    0.1643 C.ar    1  UNL1       -0.0398
      8 C           1.5893   -0.0770   -0.0555 C.ar    1  UNL1       -0.0009
      9 C           0.1167   -0.0202   -0.0236 C.ar    1  UNL1        0.0475
     10 C          -0.7396    1.0508    0.1992 C.ar    1  UNL1       -0.0287
     11 C          -2.0848    0.5973    0.1289 C.ar    1  UNL1        0.0010
     12 C          -3.3399    1.2159    0.2682 C.ar    1  UNL1       -0.0418
     13 C          -4.5175    0.4669    0.1374 C.ar    1  UNL1        0.0208
     14 C          -5.9108    0.7285    0.2085 C.ar    1  UNL1       -0.0161
     15 C          -6.5441   -0.4728   -0.0189 C.ar    1  UNL1        0.0931
     16 O          -5.6359   -1.4629   -0.2265 O.2     1  UNL1       -0.4629
     17 C          -4.4055   -0.8908   -0.1312 C.ar    1  UNL1        0.1368
     18 C          -3.1861   -1.5341   -0.2750 C.ar    1  UNL1        0.0051
     19 C          -2.0310   -0.7664   -0.1402 C.ar    1  UNL1        0.0505
     20 N          -0.7044   -1.1128   -0.2270 N.ar    1  UNL1       -0.3540
     21 C           2.2818   -1.2933   -0.3045 C.ar    1  UNL1       -0.0519
     22 C           3.6833   -1.3577   -0.3369 C.ar    1  UNL1       -0.0483
     23 C           4.3725   -0.1864   -0.1162 C.ar    1  UNL1        0.0492
     24 H           6.8285    1.8841    0.2566 H       1  UNL1        0.1581
     25 H           1.8735    2.0544    0.3598 H       1  UNL1        0.0632
     26 H          -0.4400    2.0719    0.3958 H       1  UNL1        0.0645
     27 H          -3.3955    2.2804    0.4784 H       1  UNL1        0.0631
     28 H          -6.3934    1.6756    0.4016 H       1  UNL1        0.0655
     29 H          -7.5808   -0.7758   -0.0639 H       1  UNL1        0.1029
     30 H          -3.1465   -2.5973   -0.4847 H       1  UNL1        0.0675
     31 H          -0.3899   -2.0520   -0.4162 H       1  UNL1        0.1659
     32 H           1.7403   -2.2195   -0.4791 H       1  UNL1        0.0624
     33 H           4.2060   -2.2896   -0.5276 H       1  UNL1        0.0625
@<TRIPOS>BOND
     1     1     2    2
     2     2     3   am
     3     3     4   am
     4     4     5    2
     5     4     6    1
     6     6     7   ar
     7     7     8   ar
     8     8     9    1
     9     9    10   ar
    10    10    11   ar
    11    11    12   ar
    12    12    13   ar
    13    13    14   ar
    14    14    15   ar
    15    15    16   ar
    16    16    17   ar
    17    17    18   ar
    18    18    19   ar
    19    19    20   ar
    20     8    21   ar
    21    21    22   ar
    22    22    23   ar
    23    23     2    1
    24    23     6   ar
    25    20     9   ar
    26    19    11   ar
    27    17    13   ar
    28     3    24    1
    29     7    25    1
    30    10    26    1
    31    12    27    1
    32    14    28    1
    33    15    29    1
    34    18    30    1
    35    20    31    1
    36    21    32    1
    37    22    33    1
