@<TRIPOS>MOLECULE
*****
 32 36 0 0 0
SMALL
GASTEIGER

@<TRIPOS>ATOM
      1 O           5.9612   -2.2822    2.1588 O.2     1  UNL1       -0.2698
      2 C           5.2643   -1.9472    1.2231 C.2     1  UNL1        0.2512
      3 N           5.5826   -1.9288   -0.0999 N.am    1  UNL1       -0.2483
      4 C           4.5515   -1.4929   -0.8745 C.2     1  UNL1        0.2513
      5 O           4.5248   -1.3654   -2.0813 O.2     1  UNL1       -0.2698
      6 C           3.4473   -1.1968    0.0377 C.ar    1  UNL1        0.0499
      7 C           2.1732   -0.7269   -0.2188 C.ar    1  UNL1       -0.0382
      8 C           1.3078   -0.5318    0.8734 C.ar    1  UNL1        0.0180
      9 C          -0.0534   -0.0367    0.6701 C.ar    1  UNL1        0.1363
     10 C          -1.1157    0.2520    1.5083 C.ar    1  UNL1       -0.0080
     11 C          -2.1821    0.7046    0.6879 C.ar    1  UNL1        0.0243
     12 C          -3.4968    1.1439    0.8887 C.ar    1  UNL1       -0.0080
     13 C          -4.2467    1.5145   -0.2226 C.ar    1  UNL1        0.1356
     14 O          -5.5315    1.9618   -0.2095 O.2     1  UNL1       -0.4629
     15 C          -5.8751    2.2083   -1.5014 C.ar    1  UNL1        0.0931
     16 C          -4.8261    1.9249   -2.3468 C.ar    1  UNL1       -0.0160
     17 C          -3.7609    1.4726   -1.5256 C.ar    1  UNL1        0.0236
     18 C          -2.4460    1.0331   -1.7249 C.ar    1  UNL1       -0.0080
     19 C          -1.6972    0.6628   -0.6129 C.ar    1  UNL1        0.1365
     20 O          -0.4142    0.2162   -0.6256 O.2     1  UNL1       -0.4548
     21 C           1.7732   -0.8227    2.1839 C.ar    1  UNL1       -0.0503
     22 C           3.0709   -1.2987    2.4189 C.ar    1  UNL1       -0.0482
     23 C           3.8839   -1.4749    1.3202 C.ar    1  UNL1        0.0492
     24 H           6.4793   -2.2060   -0.4655 H       1  UNL1        0.1581
     25 H           1.8665   -0.5198   -1.2404 H       1  UNL1        0.0632
     26 H          -1.1292    0.1513    2.5839 H       1  UNL1        0.0661
     27 H          -3.9293    1.1975    1.8822 H       1  UNL1        0.0661
     28 H          -6.8811    2.5743   -1.6534 H       1  UNL1        0.1029
     29 H          -4.8294    2.0314   -3.4222 H       1  UNL1        0.0655
     30 H          -2.0142    0.9797   -2.7189 H       1  UNL1        0.0661
     31 H           1.1187   -0.6782    3.0421 H       1  UNL1        0.0625
     32 H           3.4237   -1.5200    3.4212 H       1  UNL1        0.0625
@<TRIPOS>BOND
     1     1     2    2
     2     2     3   am
     3     3     4   am
     4     4     5    2
     5     4     6    1
     6     6     7   ar
     7     7     8   ar
     8     8     9    1
     9     9    10   ar
    10    10    11   ar
    11    11    12   ar
    12    12    13   ar
    13    13    14   ar
    14    14    15   ar
    15    15    16   ar
    16    16    17   ar
    17    17    18   ar
    18    18    19   ar
    19    19    20   ar
    20     8    21   ar
    21    21    22   ar
    22    22    23   ar
    23    23     2    1
    24    23     6   ar
    25    20     9   ar
    26    19    11   ar
    27    17    13   ar
    28     3    24    1
    29     7    25    1
    30    10    26    1
    31    12    27    1
    32    15    28    1
    33    16    29    1
    34    18    30    1
    35    21    31    1
    36    22    32    1
