@<TRIPOS>MOLECULE
*****
 48 55 0 0 0
SMALL
GASTEIGER

@<TRIPOS>ATOM
      1 SI         -0.4090    2.2791    0.4349 Si      1  UNL1        0.0000
      2 C           1.0852    1.2011    0.2620 C.ar    1  UNL1        0.0000
      3 C           2.4644    1.3155    0.1499 C.ar    1  UNL1        0.0000
      4 C           2.9328    0.0278   -0.0770 C.ar    1  UNL1        0.0000
      5 N           1.8274   -0.8151   -0.1068 N.ar    1  UNL1        0.0000
      6 C           0.6870   -0.1137    0.1710 C.ar    1  UNL1        0.0000
      7 C          -0.7479   -0.4639    0.2267 C.ar    1  UNL1        0.0000
      8 C          -1.5581    0.7180    0.2912 C.ar    1  UNL1        0.0000
      9 C          -2.9725    0.6495    0.2499 C.ar    1  UNL1        0.0000
     10 C          -3.9423    1.7108    0.2785 C.ar    1  UNL1        0.0000
     11 C          -3.7584    3.0726    0.3693 C.ar    1  UNL1        0.0000
     12 N          -4.9993    3.6809    0.3558 N.ar    1  UNL1        0.0000
     13 C          -5.9859    2.7332    0.2562 C.ar    1  UNL1        0.0000
     14 C          -5.3542    1.5183    0.2078 C.ar    1  UNL1        0.0000
     15 C          -6.0100    0.3146    0.1036 C.ar    1  UNL1        0.0000
     16 C          -5.0696   -0.7401    0.0826 C.ar    1  UNL1        0.0000
     17 C          -3.6065   -0.6471    0.1543 C.ar    1  UNL1        0.0000
     18 C          -2.7676   -1.8338    0.1501 C.ar    1  UNL1        0.0000
     19 C          -3.3081   -3.1499    0.0929 C.ar    1  UNL1        0.0000
     20 C          -2.5306   -4.3090    0.1368 C.ar    1  UNL1        0.0000
     21 C          -1.1632   -4.2025    0.2588 C.ar    1  UNL1        0.0000
     22 C          -0.5839   -2.9378    0.3060 C.ar    1  UNL1        0.0000
     23 C          -1.3417   -1.7412    0.2190 C.ar    1  UNL1        0.0000
     24 C           4.2815   -0.4454   -0.2916 C.ar    1  UNL1        0.0000
     25 S           4.5914   -2.1298   -0.5633 S.2     1  UNL1        0.0000
     26 C           6.2796   -1.8986   -0.7137 C.ar    1  UNL1        0.0000
     27 C           6.6159   -0.5800   -0.5631 C.ar    1  UNL1        0.0000
     28 N           7.9031   -0.1406   -0.6400 N.ar    1  UNL1        0.0000
     29 C           7.9627    1.2057   -0.4552 C.ar    1  UNL1        0.0000
     30 C           6.8614    2.0353   -0.2185 C.ar    1  UNL1        0.0000
     31 N           5.5691    1.6197   -0.1379 N.ar    1  UNL1        0.0000
     32 C           5.4687    0.2673   -0.3188 C.ar    1  UNL1        0.0000
     33 H          -0.6138    3.2125   -0.7051 H       1  UNL1        0.0000
     34 H          -0.5444    2.9281    1.7661 H       1  UNL1        0.0000
     35 H           3.0664    2.2144    0.1903 H       1  UNL1        0.0000
     36 H           1.8899   -1.7923   -0.3453 H       1  UNL1        0.0000
     37 H          -2.8913    3.7069    0.4439 H       1  UNL1        0.0000
     38 H          -5.1543    4.6793    0.4103 H       1  UNL1        0.0000
     39 H          -7.0297    3.0151    0.2293 H       1  UNL1        0.0000
     40 H          -7.0782    0.1668    0.0480 H       1  UNL1        0.0000
     41 H          -5.5321   -1.7223    0.0048 H       1  UNL1        0.0000
     42 H          -4.3778   -3.3180    0.0212 H       1  UNL1        0.0000
     43 H          -3.0054   -5.2855    0.0966 H       1  UNL1        0.0000
     44 H          -0.5451   -5.0930    0.3284 H       1  UNL1        0.0000
     45 H           0.4863   -2.9135    0.4601 H       1  UNL1        0.0000
     46 H           6.9412   -2.7312   -0.9034 H       1  UNL1        0.0000
     47 H           8.9624    1.6285   -0.5031 H       1  UNL1        0.0000
     48 H           7.0044    3.1036   -0.0821 H       1  UNL1        0.0000
@<TRIPOS>BOND
     1     1     2    1
     2     2     3   ar
     3     3     4   ar
     4     4     5   ar
     5     5     6   ar
     6     6     7    1
     7     7     8   ar
     8     8     9   ar
     9     9    10   ar
    10    10    11   ar
    11    11    12   ar
    12    12    13   ar
    13    13    14   ar
    14    14    15   ar
    15    15    16   ar
    16    16    17   ar
    17    17    18   ar
    18    18    19   ar
    19    19    20   ar
    20    20    21   ar
    21    21    22   ar
    22    22    23   ar
    23     4    24    1
    24    24    25   ar
    25    25    26   ar
    26    26    27   ar
    27    27    28   ar
    28    28    29   ar
    29    29    30   ar
    30    30    31   ar
    31    31    32   ar
    32     8     1    1
    33    17     9   ar
    34    23    18   ar
    35    32    24   ar
    36     6     2   ar
    37    23     7   ar
    38    32    27   ar
    39    14    10   ar
    40     1    33    1
    41     1    34    1
    42     3    35    1
    43     5    36    1
    44    11    37    1
    45    12    38    1
    46    13    39    1
    47    15    40    1
    48    16    41    1
    49    19    42    1
    50    20    43    1
    51    21    44    1
    52    22    45    1
    53    26    46    1
    54    29    47    1
    55    30    48    1
