@<TRIPOS>MOLECULE
*****
 30 33 0 0 0
SMALL
GASTEIGER

@<TRIPOS>ATOM
      1 O           5.9067    1.1514    0.4620 O.2     1  UNL1       -0.2698
      2 C           5.0867    0.3753    0.0161 C.2     1  UNL1        0.2512
      3 N           5.3049   -0.7656   -0.6927 N.am    1  UNL1       -0.2483
      4 C           4.1455   -1.3921   -1.0340 C.2     1  UNL1        0.2513
      5 O           4.0073   -2.4220   -1.6614 O.2     1  UNL1       -0.2698
      6 C           3.0607   -0.5751   -0.4916 C.ar    1  UNL1        0.0498
      7 C           1.6906   -0.7520   -0.5490 C.ar    1  UNL1       -0.0398
      8 C           0.8678    0.2069    0.0707 C.ar    1  UNL1       -0.0009
      9 C          -0.5971    0.0504    0.0295 C.ar    1  UNL1        0.0475
     10 C          -1.3826   -0.9383   -0.5483 C.ar    1  UNL1       -0.0287
     11 C          -2.7530   -0.6418   -0.3149 C.ar    1  UNL1        0.0003
     12 C          -3.9658   -1.2704   -0.6555 C.ar    1  UNL1       -0.0526
     13 C          -5.1734   -0.6883   -0.2528 C.ar    1  UNL1       -0.0611
     14 C          -5.1813    0.4989    0.4766 C.ar    1  UNL1       -0.0598
     15 C          -3.9878    1.1390    0.8250 C.ar    1  UNL1       -0.0378
     16 C          -2.7909    0.5413    0.4131 C.ar    1  UNL1        0.0469
     17 N          -1.4872    0.9354    0.6064 N.ar    1  UNL1       -0.3541
     18 C           1.4799    1.3103    0.7254 C.ar    1  UNL1       -0.0519
     19 C           2.8735    1.4683    0.7703 C.ar    1  UNL1       -0.0483
     20 C           3.6365    0.5046    0.1498 C.ar    1  UNL1        0.0492
     21 H           6.2199   -1.1083   -0.9375 H       1  UNL1        0.1581
     22 H           1.2881   -1.6173   -1.0653 H       1  UNL1        0.0632
     23 H          -1.0203   -1.8009   -1.0917 H       1  UNL1        0.0645
     24 H          -3.9672   -2.1957   -1.2237 H       1  UNL1        0.0624
     25 H          -6.1132   -1.1692   -0.5129 H       1  UNL1        0.0618
     26 H          -6.1303    0.9353    0.7802 H       1  UNL1        0.0618
     27 H          -3.9980    2.0632    1.3930 H       1  UNL1        0.0638
     28 H          -1.2346    1.7711    1.1101 H       1  UNL1        0.1659
     29 H           0.8796    2.0723    1.2158 H       1  UNL1        0.0624
     30 H           3.3348    2.3131    1.2718 H       1  UNL1        0.0625
@<TRIPOS>BOND
     1     1     2    2
     2     2     3   am
     3     3     4   am
     4     4     5    2
     5     4     6    1
     6     6     7   ar
     7     7     8   ar
     8     8     9    1
     9     9    10   ar
    10    10    11   ar
    11    11    12   ar
    12    12    13   ar
    13    13    14   ar
    14    14    15   ar
    15    15    16   ar
    16    16    17   ar
    17     8    18   ar
    18    18    19   ar
    19    19    20   ar
    20    20     2    1
    21    20     6   ar
    22    17     9   ar
    23    16    11   ar
    24     3    21    1
    25     7    22    1
    26    10    23    1
    27    12    24    1
    28    13    25    1
    29    14    26    1
    30    15    27    1
    31    17    28    1
    32    18    29    1
    33    19    30    1
