@<TRIPOS>MOLECULE
*****
 29 32 0 0 0
SMALL
GASTEIGER

@<TRIPOS>ATOM
      1 O           6.0474    0.8721    0.0386 O.2     1  UNL1       -0.2698
      2 C           5.1167    0.1935    0.4217 C.2     1  UNL1        0.2512
      3 N           5.1520   -0.9117    1.2154 N.am    1  UNL1       -0.2483
      4 C           3.9117   -1.4227    1.4448 C.2     1  UNL1        0.2513
      5 O           3.6099   -2.3947    2.1064 O.2     1  UNL1       -0.2698
      6 C           2.9720   -0.5624    0.7272 C.ar    1  UNL1        0.0498
      7 C           1.5936   -0.6325    0.6264 C.ar    1  UNL1       -0.0407
      8 C           0.9238    0.3405   -0.1423 C.ar    1  UNL1       -0.0105
      9 C          -0.5563    0.2899   -0.2681 C.ar    1  UNL1        0.0205
     10 C          -1.4469   -0.6178    0.2832 C.ar    1  UNL1       -0.0392
     11 C          -2.8234   -0.3711   -0.0438 C.ar    1  UNL1       -0.0102
     12 C          -3.9981   -1.0692    0.3266 C.ar    1  UNL1       -0.0535
     13 C          -5.2493   -0.6346   -0.1209 C.ar    1  UNL1       -0.0611
     14 C          -5.3514    0.4862   -0.9331 C.ar    1  UNL1       -0.0607
     15 C          -4.2085    1.1933   -1.3134 C.ar    1  UNL1       -0.0474
     16 C          -2.9509    0.7504   -0.8592 C.ar    1  UNL1        0.0199
     17 S          -1.4215    1.4515   -1.1929 S.2     1  UNL1       -0.0882
     18 C           1.7078    1.3477   -0.7762 C.ar    1  UNL1       -0.0528
     19 C           3.1061    1.3985   -0.6595 C.ar    1  UNL1       -0.0483
     20 C           3.7086    0.4245    0.1025 C.ar    1  UNL1        0.0492
     21 H           5.9999   -1.3060    1.5899 H       1  UNL1        0.1581
     22 H           1.0728   -1.4329    1.1414 H       1  UNL1        0.0631
     23 H          -1.1473   -1.4483    0.9095 H       1  UNL1        0.0635
     24 H          -3.9304   -1.9485    0.9623 H       1  UNL1        0.0624
     25 H          -6.1448   -1.1786    0.1698 H       1  UNL1        0.0618
     26 H          -6.3280    0.8186   -1.2775 H       1  UNL1        0.0618
     27 H          -4.2906    2.0703   -1.9491 H       1  UNL1        0.0629
     28 H           1.2368    2.1214   -1.3807 H       1  UNL1        0.0624
     29 H           3.6885    2.1726   -1.1490 H       1  UNL1        0.0625
@<TRIPOS>BOND
     1     1     2    2
     2     2     3   am
     3     3     4   am
     4     4     5    2
     5     4     6    1
     6     6     7   ar
     7     7     8   ar
     8     8     9    1
     9     9    10   ar
    10    10    11   ar
    11    11    12   ar
    12    12    13   ar
    13    13    14   ar
    14    14    15   ar
    15    15    16   ar
    16    16    17   ar
    17     8    18   ar
    18    18    19   ar
    19    19    20   ar
    20    20     2    1
    21    20     6   ar
    22    17     9   ar
    23    16    11   ar
    24     3    21    1
    25     7    22    1
    26    10    23    1
    27    12    24    1
    28    13    25    1
    29    14    26    1
    30    15    27    1
    31    18    28    1
    32    19    29    1
