@<TRIPOS>MOLECULE
*****
 31 35 0 0 0
SMALL
GASTEIGER

@<TRIPOS>ATOM
      1 O          -6.3216    0.4792    1.4227 O.2     1  UNL1       -0.2698
      2 C          -5.5214   -0.0067    0.6501 C.2     1  UNL1        0.2512
      3 N          -5.7660   -0.7967   -0.4307 N.am    1  UNL1       -0.2483
      4 C          -4.6229   -1.1620   -1.0731 C.2     1  UNL1        0.2513
      5 O          -4.5071   -1.8570   -2.0615 O.2     1  UNL1       -0.2698
      6 C          -3.5206   -0.5468   -0.3351 C.ar    1  UNL1        0.0498
      7 C          -2.1565   -0.5946   -0.5573 C.ar    1  UNL1       -0.0398
      8 C          -1.3124    0.1034    0.3263 C.ar    1  UNL1       -0.0008
      9 C           0.1468    0.0752    0.1210 C.ar    1  UNL1        0.0501
     10 C           0.9092   -0.5615   -0.8589 C.ar    1  UNL1       -0.0087
     11 C           2.2724   -0.2822   -0.6219 C.ar    1  UNL1        0.1089
     12 N           3.3997   -0.6604   -1.2807 N.ar    1  UNL1       -0.2387
     13 C           4.5583   -0.1862   -0.7469 C.ar    1  UNL1        0.1293
     14 C           5.9057   -0.3492   -1.1286 C.ar    1  UNL1        0.0039
     15 C           6.6466    0.3650   -0.2109 C.ar    1  UNL1        0.0966
     16 O           5.8411    0.9591    0.7142 O.2     1  UNL1       -0.4439
     17 C           4.5627    0.6236    0.3887 C.ar    1  UNL1        0.2478
     18 N           3.4583    1.0124    1.0596 N.ar    1  UNL1       -0.1914
     19 C           2.3317    0.5249    0.5036 C.ar    1  UNL1        0.1609
     20 N           1.0552    0.7311    0.9380 N.ar    1  UNL1       -0.3377
     21 C          -1.8974    0.8236    1.4033 C.ar    1  UNL1       -0.0519
     22 C          -3.2854    0.8570    1.6079 C.ar    1  UNL1       -0.0483
     23 C          -4.0703    0.1590    0.7176 C.ar    1  UNL1        0.0492
     24 H          -6.6878   -1.0793   -0.7224 H       1  UNL1        0.1581
     25 H          -1.7768   -1.1642   -1.3995 H       1  UNL1        0.0632
     26 H           0.5347   -1.1702   -1.6704 H       1  UNL1        0.0661
     27 H           6.2858   -0.9150   -1.9657 H       1  UNL1        0.0671
     28 H           7.7058    0.5424   -0.0822 H       1  UNL1        0.1031
     29 H           0.8396    1.2910    1.7480 H       1  UNL1        0.1674
     30 H          -1.2812    1.3761    2.1086 H       1  UNL1        0.0624
     31 H          -3.7262    1.4088    2.4322 H       1  UNL1        0.0625
@<TRIPOS>BOND
     1     1     2    2
     2     2     3   am
     3     3     4   am
     4     4     5    2
     5     4     6    1
     6     6     7   ar
     7     7     8   ar
     8     8     9    1
     9     9    10   ar
    10    10    11   ar
    11    11    12   ar
    12    12    13   ar
    13    13    14   ar
    14    14    15   ar
    15    15    16   ar
    16    16    17   ar
    17    17    18   ar
    18    18    19   ar
    19    19    20   ar
    20     8    21   ar
    21    21    22   ar
    22    22    23   ar
    23    23     2    1
    24    23     6   ar
    25    20     9   ar
    26    19    11   ar
    27    17    13   ar
    28     3    24    1
    29     7    25    1
    30    10    26    1
    31    14    27    1
    32    15    28    1
    33    20    29    1
    34    21    30    1
    35    22    31    1
