@<TRIPOS>MOLECULE
*****
 28 31 0 0 0
SMALL
GASTEIGER

@<TRIPOS>ATOM
      1 O           5.2682    0.8561   -1.4988 O.2     1  UNL1       -0.2698
      2 C           4.5220    0.2267   -0.7773 C.2     1  UNL1        0.2512
      3 N           4.8435   -0.7343    0.1314 N.am    1  UNL1       -0.2483
      4 C           3.7492   -1.2236    0.7760 C.2     1  UNL1        0.2513
      5 O           3.7058   -2.0727    1.6425 O.2     1  UNL1       -0.2698
      6 C           2.5951   -0.5145    0.2255 C.ar    1  UNL1        0.0498
      7 C           1.2500   -0.6275    0.5224 C.ar    1  UNL1       -0.0412
      8 C           0.3461    0.1969   -0.1747 C.ar    1  UNL1       -0.0171
      9 C          -1.1012    0.1221    0.0969 C.ar    1  UNL1       -0.0157
     10 C          -1.5938    0.2361    1.4131 C.ar    1  UNL1       -0.0519
     11 C          -2.9623    0.1696    1.7158 C.ar    1  UNL1       -0.0342
     12 C          -3.8226   -0.0168    0.6365 C.ar    1  UNL1        0.0858
     13 N          -5.1797   -0.1300    0.5239 N.ar    1  UNL1       -0.2571
     14 N          -5.5646   -0.3027   -0.7511 N.ar    1  UNL1       -0.0673
     15 N          -4.4683   -0.3084   -1.4999 N.ar    1  UNL1       -0.1297
     16 C          -3.3893   -0.1344   -0.6754 C.ar    1  UNL1        0.1130
     17 C          -2.0176   -0.0662   -0.9581 C.ar    1  UNL1       -0.0247
     18 C           0.8529    1.1039   -1.1472 C.ar    1  UNL1       -0.0533
     19 C           2.2219    1.1996   -1.4311 C.ar    1  UNL1       -0.0483
     20 C           3.0679    0.3729   -0.7243 C.ar    1  UNL1        0.0492
     21 H           5.7856   -1.0406    0.3136 H       1  UNL1        0.1581
     22 H           0.9148   -1.3451    1.2661 H       1  UNL1        0.0631
     23 H          -0.8967    0.3928    2.2369 H       1  UNL1        0.0624
     24 H          -3.3203    0.2618    2.7355 H       1  UNL1        0.0639
     25 H          -5.8876   -0.1008    1.2470 H       1  UNL1        0.1907
     26 H          -1.6858   -0.1715   -1.9861 H       1  UNL1        0.0646
     27 H           0.1648    1.7559   -1.6863 H       1  UNL1        0.0624
     28 H           2.6021    1.8949   -2.1725 H       1  UNL1        0.0625
@<TRIPOS>BOND
     1     1     2    2
     2     2     3   am
     3     3     4   am
     4     4     5    2
     5     4     6    1
     6     6     7   ar
     7     7     8   ar
     8     8     9    1
     9     9    10   ar
    10    10    11   ar
    11    11    12   ar
    12    12    13   ar
    13    13    14   ar
    14    14    15   ar
    15    15    16   ar
    16    16    17   ar
    17     8    18   ar
    18    18    19   ar
    19    19    20   ar
    20    20     2    1
    21    20     6   ar
    22    17     9   ar
    23    16    12   ar
    24     3    21    1
    25     7    22    1
    26    10    23    1
    27    11    24    1
    28    13    25    1
    29    17    26    1
    30    18    27    1
    31    19    28    1
