@<TRIPOS>MOLECULE
*****
 38 42 0 0 0
SMALL
GASTEIGER

@<TRIPOS>ATOM
      1 O          -7.3882   -0.6318   -0.5948 O.2     1  UNL1       -0.2698
      2 C          -6.4381    0.1165   -0.4904 C.2     1  UNL1        0.2512
      3 N          -6.4199    1.4730   -0.6008 N.am    1  UNL1       -0.2483
      4 C          -5.1711    1.9886   -0.4363 C.2     1  UNL1        0.2513
      5 O          -4.8253    3.1511   -0.4895 O.2     1  UNL1       -0.2698
      6 C          -4.2861    0.8527   -0.1837 C.ar    1  UNL1        0.0498
      7 C          -2.9251    0.8143    0.0541 C.ar    1  UNL1       -0.0412
      8 C          -2.3248   -0.4417    0.2648 C.ar    1  UNL1       -0.0171
      9 C          -0.8776   -0.5476    0.5224 C.ar    1  UNL1       -0.0159
     10 C          -0.3934   -1.2490    1.6401 C.ar    1  UNL1       -0.0532
     11 C           0.9778   -1.3621    1.8797 C.ar    1  UNL1       -0.0484
     12 C           1.8845   -0.7647    1.0020 C.ar    1  UNL1        0.0456
     13 C           3.3453   -0.8829    1.2388 C.ar    1  UNL1        0.1971
     14 O           3.7725   -1.5149    2.1998 O.2     1  UNL1       -0.2865
     15 C           4.2759   -0.2166    0.2935 C.ar    1  UNL1        0.0456
     16 C           5.6581   -0.2902    0.4950 C.ar    1  UNL1       -0.0489
     17 C           6.5198    0.3356   -0.4047 C.ar    1  UNL1       -0.0610
     18 C           6.0010    1.0242   -1.5018 C.ar    1  UNL1       -0.0598
     19 C           4.6188    1.0956   -1.7009 C.ar    1  UNL1       -0.0377
     20 C           3.7417    0.4924   -0.7944 C.ar    1  UNL1        0.0506
     21 N           2.3549    0.5124   -1.0154 N.ar    1  UNL1       -0.3539
     22 C           1.4343   -0.0374   -0.1084 C.ar    1  UNL1        0.0511
     23 C           0.0568    0.0475   -0.3478 C.ar    1  UNL1       -0.0299
     24 C          -3.1389   -1.6081    0.2238 C.ar    1  UNL1       -0.0533
     25 C          -4.5177   -1.5431   -0.0181 C.ar    1  UNL1       -0.0483
     26 C          -5.0608   -0.2926   -0.2178 C.ar    1  UNL1        0.0492
     27 H          -7.2362    2.0304   -0.7946 H       1  UNL1        0.1581
     28 H          -2.3518    1.7366    0.0864 H       1  UNL1        0.0631
     29 H          -1.0847   -1.7125    2.3419 H       1  UNL1        0.0624
     30 H           1.3359   -1.9140    2.7461 H       1  UNL1        0.0625
     31 H           6.0600   -0.8352    1.3461 H       1  UNL1        0.0625
     32 H           7.5952    0.2799   -0.2539 H       1  UNL1        0.0618
     33 H           6.6757    1.5019   -2.2085 H       1  UNL1        0.0618
     34 H           4.2371    1.6234   -2.5707 H       1  UNL1        0.0638
     35 H           2.0073    1.2200   -1.6503 H       1  UNL1        0.1659
     36 H          -0.2962    0.5728   -1.2329 H       1  UNL1        0.0644
     37 H          -2.6841   -2.5879    0.3730 H       1  UNL1        0.0624
     38 H          -5.1327   -2.4367   -0.0505 H       1  UNL1        0.0625
@<TRIPOS>BOND
     1     1     2    2
     2     2     3   am
     3     3     4   am
     4     4     5    2
     5     4     6    1
     6     6     7   ar
     7     7     8   ar
     8     8     9    1
     9     9    10   ar
    10    10    11   ar
    11    11    12   ar
    12    12    13   ar
    13    13    14    2
    14    13    15   ar
    15    15    16   ar
    16    16    17   ar
    17    17    18   ar
    18    18    19   ar
    19    19    20   ar
    20    20    21   ar
    21    21    22   ar
    22    22    23   ar
    23     8    24   ar
    24    24    25   ar
    25    25    26   ar
    26    26     2    1
    27    26     6   ar
    28    23     9   ar
    29    22    12   ar
    30    20    15   ar
    31     3    27    1
    32     7    28    1
    33    10    29    1
    34    11    30    1
    35    16    31    1
    36    17    32    1
    37    18    33    1
    38    19    34    1
    39    21    35    1
    40    23    36    1
    41    24    37    1
    42    25    38    1
