@<TRIPOS>MOLECULE
*****
 42 46 0 0 0
SMALL
GASTEIGER

@<TRIPOS>ATOM
      1 O           7.7792   -1.2338   -0.7459 O.2     1  UNL1       -0.2698
      2 C           6.8919   -0.6813   -0.1285 C.2     1  UNL1        0.2512
      3 N           6.9912    0.0422    1.0200 N.am    1  UNL1       -0.2483
      4 C           5.7862    0.5179    1.4379 C.2     1  UNL1        0.2513
      5 O           5.5453    1.1873    2.4215 O.2     1  UNL1       -0.2698
      6 C           4.8006    0.0598    0.4597 C.ar    1  UNL1        0.0498
      7 C           3.4346    0.2611    0.4028 C.ar    1  UNL1       -0.0412
      8 C           2.7255   -0.3076   -0.6726 C.ar    1  UNL1       -0.0171
      9 C           1.2685   -0.1277   -0.7882 C.ar    1  UNL1       -0.0175
     10 C           0.6893    0.3623   -1.9600 C.ar    1  UNL1       -0.0523
     11 C          -0.6966    0.5239   -2.0576 C.ar    1  UNL1       -0.0397
     12 C          -1.5626    0.2043   -0.9946 C.ar    1  UNL1        0.0346
     13 C          -0.9918   -0.2684    0.1927 C.ar    1  UNL1       -0.0253
     14 C           0.4097   -0.4400    0.2761 C.ar    1  UNL1       -0.0491
     15 C          -1.8208   -0.6552    1.3898 C.3     1  UNL1       -0.0219
     16 C          -2.7837    0.4467    1.8111 C.3     1  UNL1       -0.0219
     17 C          -4.0631    0.4269    1.0172 C.ar    1  UNL1       -0.0259
     18 C          -5.2814    0.4568    1.7287 C.ar    1  UNL1       -0.0568
     19 C          -6.5066    0.4563    1.0667 C.ar    1  UNL1       -0.0614
     20 C          -6.5335    0.4315   -0.3190 C.ar    1  UNL1       -0.0600
     21 C          -5.3335    0.4155   -1.0319 C.ar    1  UNL1       -0.0403
     22 C          -4.0798    0.4250   -0.3848 C.ar    1  UNL1        0.0345
     23 N          -2.9374    0.4061   -1.2058 N.pl3   1  UNL1       -0.3141
     24 C           3.4400   -1.0600   -1.6464 C.ar    1  UNL1       -0.0533
     25 C           4.8259   -1.2499   -1.5673 C.ar    1  UNL1       -0.0483
     26 C           5.4771   -0.6739   -0.4982 C.ar    1  UNL1        0.0492
     27 H           7.8574    0.2038    1.5079 H       1  UNL1        0.1581
     28 H           2.9372    0.8527    1.1665 H       1  UNL1        0.0631
     29 H           1.3097    0.6363   -2.8105 H       1  UNL1        0.0624
     30 H          -1.0996    0.9147   -2.9895 H       1  UNL1        0.0636
     31 H           0.8367   -0.8375    1.1966 H       1  UNL1        0.0627
     32 H          -2.3410   -1.5989    1.1827 H       1  UNL1        0.0317
     33 H          -1.1540   -0.8506    2.2397 H       1  UNL1        0.0317
     34 H          -2.3262    1.4416    1.7398 H       1  UNL1        0.0317
     35 H          -3.0183    0.2899    2.8720 H       1  UNL1        0.0317
     36 H          -5.2791    0.4789    2.8168 H       1  UNL1        0.0621
     37 H          -7.4335    0.4744    1.6332 H       1  UNL1        0.0618
     38 H          -7.4821    0.4260   -0.8482 H       1  UNL1        0.0618
     39 H          -5.3858    0.3936   -2.1181 H       1  UNL1        0.0636
     40 H          -3.1591    0.5932   -2.1771 H       1  UNL1        0.1522
     41 H           2.8989   -1.5165   -2.4756 H       1  UNL1        0.0624
     42 H           5.3647   -1.8274   -2.3114 H       1  UNL1        0.0625
@<TRIPOS>BOND
     1     1     2    2
     2     2     3   am
     3     3     4   am
     4     4     5    2
     5     4     6    1
     6     6     7   ar
     7     7     8   ar
     8     8     9    1
     9     9    10   ar
    10    10    11   ar
    11    11    12   ar
    12    12    13   ar
    13    13    14   ar
    14    13    15    1
    15    15    16    1
    16    16    17    1
    17    17    18   ar
    18    18    19   ar
    19    19    20   ar
    20    20    21   ar
    21    21    22   ar
    22    22    23    1
    23     8    24   ar
    24    24    25   ar
    25    25    26   ar
    26    26     2    1
    27    26     6   ar
    28    14     9   ar
    29    22    17   ar
    30    23    12    1
    31     3    27    1
    32     7    28    1
    33    10    29    1
    34    11    30    1
    35    14    31    1
    36    15    32    1
    37    15    33    1
    38    16    34    1
    39    16    35    1
    40    18    36    1
    41    19    37    1
    42    20    38    1
    43    21    39    1
    44    23    40    1
    45    24    41    1
    46    25    42    1
