@<TRIPOS>MOLECULE
*****
 37 41 0 0 0
SMALL
GASTEIGER

@<TRIPOS>ATOM
      1 O          -7.2574   -0.2774   -1.0351 O.2     1  UNL1       -0.2698
      2 C          -6.2810    0.4022   -0.7933 C.2     1  UNL1        0.2512
      3 N          -6.1845    1.7598   -0.7769 N.am    1  UNL1       -0.2483
      4 C          -4.9282    2.1855   -0.4719 C.2     1  UNL1        0.2513
      5 O          -4.5217    3.3264   -0.3896 O.2     1  UNL1       -0.2698
      6 C          -4.1250    0.9821   -0.2609 C.ar    1  UNL1        0.0498
      7 C          -2.7911    0.8433    0.0729 C.ar    1  UNL1       -0.0412
      8 C          -2.2750   -0.4594    0.2106 C.ar    1  UNL1       -0.0171
      9 C          -0.8609   -0.6721    0.5644 C.ar    1  UNL1       -0.0160
     10 C          -0.5008   -1.4883    1.6440 C.ar    1  UNL1       -0.0529
     11 C           0.8426   -1.6958    1.9679 C.ar    1  UNL1       -0.0456
     12 C           1.8611   -1.0868    1.2238 C.ar    1  UNL1        0.0339
     13 C           1.5274   -0.2460    0.1516 C.ar    1  UNL1        0.0458
     14 C           0.1705   -0.0648   -0.1737 C.ar    1  UNL1       -0.0317
     15 N           2.5043    0.3567   -0.6616 N.pl3   1  UNL1       -0.3127
     16 C           3.8964    0.3269   -0.4611 C.ar    1  UNL1        0.0453
     17 C           4.7231    1.0360   -1.3480 C.ar    1  UNL1       -0.0395
     18 C           6.1128    1.0043   -1.2181 C.ar    1  UNL1       -0.0599
     19 C           6.6971    0.2498   -0.2068 C.ar    1  UNL1       -0.0606
     20 C           5.8907   -0.4772    0.6690 C.ar    1  UNL1       -0.0462
     21 C           4.4930   -0.4511    0.5454 C.ar    1  UNL1        0.0339
     22 S           3.5458   -1.4233    1.7047 S.3     1  UNL1       -0.0857
     23 C          -3.1421   -1.5682    0.0014 C.ar    1  UNL1       -0.0533
     24 C          -4.4921   -1.4016   -0.3354 C.ar    1  UNL1       -0.0483
     25 C          -4.9523   -0.1087   -0.4584 C.ar    1  UNL1        0.0492
     26 H          -6.9534    2.3788   -0.9772 H       1  UNL1        0.1581
     27 H          -2.1746    1.7236    0.2328 H       1  UNL1        0.0631
     28 H          -1.2649   -1.9696    2.2514 H       1  UNL1        0.0624
     29 H           1.0881   -2.3405    2.8092 H       1  UNL1        0.0629
     30 H          -0.0867    0.5540   -1.0313 H       1  UNL1        0.0642
     31 H           2.1729    1.0994   -1.2631 H       1  UNL1        0.1522
     32 H           4.2873    1.6212   -2.1537 H       1  UNL1        0.0636
     33 H           6.7368    1.5643   -1.9099 H       1  UNL1        0.0618
     34 H           7.7785    0.2199   -0.1018 H       1  UNL1        0.0618
     35 H           6.3616   -1.0702    1.4501 H       1  UNL1        0.0629
     36 H          -2.7507   -2.5819    0.0922 H       1  UNL1        0.0624
     37 H          -5.1475   -2.2514   -0.4964 H       1  UNL1        0.0625
@<TRIPOS>BOND
     1     1     2    2
     2     2     3   am
     3     3     4   am
     4     4     5    2
     5     4     6    1
     6     6     7   ar
     7     7     8   ar
     8     8     9    1
     9     9    10   ar
    10    10    11   ar
    11    11    12   ar
    12    12    13   ar
    13    13    14   ar
    14    13    15    1
    15    15    16    1
    16    16    17   ar
    17    17    18   ar
    18    18    19   ar
    19    19    20   ar
    20    20    21   ar
    21    21    22    1
    22     8    23   ar
    23    23    24   ar
    24    24    25   ar
    25    25     2    1
    26    25     6   ar
    27    14     9   ar
    28    21    16   ar
    29    22    12    1
    30     3    26    1
    31     7    27    1
    32    10    28    1
    33    11    29    1
    34    14    30    1
    35    15    31    1
    36    17    32    1
    37    18    33    1
    38    19    34    1
    39    20    35    1
    40    23    36    1
    41    24    37    1
