@<TRIPOS>MOLECULE
*****
 37 41 0 0 0
SMALL
GASTEIGER

@<TRIPOS>ATOM
      1 O          -7.2573   -0.6881    0.4118 O.2     1  UNL1       -0.2698
      2 C          -6.3573    0.1148    0.5489 C.2     1  UNL1        0.2512
      3 N          -6.4498    1.4347    0.8683 N.am    1  UNL1       -0.2483
      4 C          -5.2306    2.0342    0.9490 C.2     1  UNL1        0.2513
      5 O          -4.9798    3.1899    1.2232 O.2     1  UNL1       -0.2698
      6 C          -4.2421    1.0011    0.6435 C.ar    1  UNL1        0.0498
      7 C          -2.8631    1.0715    0.5827 C.ar    1  UNL1       -0.0412
      8 C          -2.1528   -0.1009    0.2605 C.ar    1  UNL1       -0.0171
      9 C          -0.6815   -0.0896    0.1797 C.ar    1  UNL1       -0.0158
     10 C           0.0984    0.4317    1.2132 C.ar    1  UNL1       -0.0533
     11 C           1.4933    0.4336    1.1215 C.ar    1  UNL1       -0.0514
     12 C           2.1646   -0.0871   -0.0109 C.ar    1  UNL1        0.0081
     13 C           1.3736   -0.6139   -1.0564 C.ar    1  UNL1        0.0721
     14 C          -0.0114   -0.6035   -0.9415 C.ar    1  UNL1       -0.0280
     15 N           1.8927   -1.1334   -2.1753 N.ar    1  UNL1       -0.2543
     16 C           3.2363   -1.1494   -2.3014 C.ar    1  UNL1        0.0360
     17 C           4.1279   -0.6655   -1.3520 C.ar    1  UNL1        0.0008
     18 C           5.5184   -0.7208   -1.5628 C.ar    1  UNL1       -0.0526
     19 C           6.4016   -0.2327   -0.6043 C.ar    1  UNL1       -0.0611
     20 C           5.9032    0.3136    0.5701 C.ar    1  UNL1       -0.0611
     21 C           4.5221    0.3710    0.7844 C.ar    1  UNL1       -0.0534
     22 C           3.5916   -0.1163   -0.1688 C.ar    1  UNL1       -0.0073
     23 C          -2.8813   -1.2986    0.0140 C.ar    1  UNL1       -0.0533
     24 C          -4.2803   -1.3448    0.0811 C.ar    1  UNL1       -0.0483
     25 C          -4.9313   -0.1730    0.3991 C.ar    1  UNL1        0.0492
     26 H          -7.3213    1.9109    1.0362 H       1  UNL1        0.1581
     27 H          -2.3576    2.0152    0.7683 H       1  UNL1        0.0631
     28 H          -0.3682    0.8338    2.1107 H       1  UNL1        0.0624
     29 H           2.0481    0.8498    1.9577 H       1  UNL1        0.0624
     30 H          -0.5867   -1.0061   -1.7743 H       1  UNL1        0.0645
     31 H           3.5884   -1.5841   -3.2339 H       1  UNL1        0.0836
     32 H           5.9209   -1.1466   -2.4798 H       1  UNL1        0.0624
     33 H           7.4740   -0.2788   -0.7747 H       1  UNL1        0.0618
     34 H           6.5854    0.6977    1.3245 H       1  UNL1        0.0618
     35 H           4.1840    0.8085    1.7198 H       1  UNL1        0.0624
     36 H          -2.3433   -2.2165   -0.2257 H       1  UNL1        0.0624
     37 H          -4.8288   -2.2622   -0.1064 H       1  UNL1        0.0625
@<TRIPOS>BOND
     1     1     2    2
     2     2     3   am
     3     3     4   am
     4     4     5    2
     5     4     6    1
     6     6     7   ar
     7     7     8   ar
     8     8     9    1
     9     9    10   ar
    10    10    11   ar
    11    11    12   ar
    12    12    13   ar
    13    13    14   ar
    14    13    15   ar
    15    15    16   ar
    16    16    17   ar
    17    17    18   ar
    18    18    19   ar
    19    19    20   ar
    20    20    21   ar
    21    21    22   ar
    22     8    23   ar
    23    23    24   ar
    24    24    25   ar
    25    25     2    1
    26    25     6   ar
    27    14     9   ar
    28    22    17   ar
    29    22    12   ar
    30     3    26    1
    31     7    27    1
    32    10    28    1
    33    11    29    1
    34    14    30    1
    35    16    31    1
    36    18    32    1
    37    19    33    1
    38    20    34    1
    39    21    35    1
    40    23    36    1
    41    24    37    1
