@<TRIPOS>MOLECULE
*****
 36 40 0 0 0
SMALL
GASTEIGER

@<TRIPOS>ATOM
      1 O          -6.6900   -0.4432   -2.4934 O.2     1  UNL1       -0.2698
      2 C          -6.0893   -0.3952   -1.4397 C.2     1  UNL1        0.2512
      3 N          -6.5853   -0.5461   -0.1812 N.am    1  UNL1       -0.2483
      4 C          -5.6219   -0.4256    0.7726 C.2     1  UNL1        0.2513
      5 O          -5.7462   -0.5022    1.9778 O.2     1  UNL1       -0.2698
      6 C          -4.3684   -0.1743    0.0631 C.ar    1  UNL1        0.0498
      7 C          -3.0888    0.0212    0.5474 C.ar    1  UNL1       -0.0412
      8 C          -2.0555    0.2457   -0.3824 C.ar    1  UNL1       -0.0170
      9 C          -0.6704    0.4599    0.0722 C.ar    1  UNL1       -0.0142
     10 C          -0.3694    1.4301    1.0460 C.ar    1  UNL1       -0.0503
     11 C           0.9443    1.6366    1.4794 C.ar    1  UNL1       -0.0151
     12 C           1.9763    0.8727    0.9435 C.ar    1  UNL1        0.1706
     13 C           1.6995   -0.0930   -0.0199 C.ar    1  UNL1        0.1712
     14 C           0.3886   -0.3000   -0.4539 C.ar    1  UNL1       -0.0079
     15 O           2.6813   -0.8735   -0.5774 O.3     1  UNL1       -0.4486
     16 C           3.9539   -0.6369   -0.1216 C.ar    1  UNL1        0.1706
     17 C           4.9852   -1.4059   -0.6587 C.ar    1  UNL1       -0.0156
     18 C           6.2973   -1.2024   -0.2271 C.ar    1  UNL1       -0.0581
     19 C           6.5741   -0.2322    0.7387 C.ar    1  UNL1       -0.0581
     20 C           5.5396    0.5366    1.2751 C.ar    1  UNL1       -0.0156
     21 C           4.2303    0.3315    0.8426 C.ar    1  UNL1        0.1706
     22 O           3.2478    1.1113    1.3992 O.3     1  UNL1       -0.4486
     23 C          -2.3712    0.2626   -1.7699 C.ar    1  UNL1       -0.0533
     24 C          -3.6770    0.0613   -2.2368 C.ar    1  UNL1       -0.0483
     25 C          -4.6544   -0.1556   -1.2901 C.ar    1  UNL1        0.0492
     26 H          -7.5563   -0.7214    0.0214 H       1  UNL1        0.1581
     27 H          -2.8997   -0.0122    1.6169 H       1  UNL1        0.0631
     28 H          -1.1604    2.0460    1.4707 H       1  UNL1        0.0625
     29 H           1.1584    2.3922    2.2302 H       1  UNL1        0.0656
     30 H           0.1985   -1.0693   -1.1989 H       1  UNL1        0.0662
     31 H           4.7687   -2.1604   -1.4095 H       1  UNL1        0.0655
     32 H           7.1043   -1.8003   -0.6434 H       1  UNL1        0.0619
     33 H           7.5965   -0.0753    1.0738 H       1  UNL1        0.0619
     34 H           5.7535    1.2913    2.0266 H       1  UNL1        0.0655
     35 H          -1.5823    0.4482   -2.4994 H       1  UNL1        0.0624
     36 H          -3.9116    0.0779   -3.2962 H       1  UNL1        0.0625
@<TRIPOS>BOND
     1     1     2    2
     2     2     3   am
     3     3     4   am
     4     4     5    2
     5     4     6    1
     6     6     7   ar
     7     7     8   ar
     8     8     9    1
     9     9    10   ar
    10    10    11   ar
    11    11    12   ar
    12    12    13   ar
    13    13    14   ar
    14    13    15    1
    15    15    16    1
    16    16    17   ar
    17    17    18   ar
    18    18    19   ar
    19    19    20   ar
    20    20    21   ar
    21    21    22    1
    22     8    23   ar
    23    23    24   ar
    24    24    25   ar
    25    25     2    1
    26    25     6   ar
    27    14     9   ar
    28    21    16   ar
    29    22    12    1
    30     3    26    1
    31     7    27    1
    32    10    28    1
    33    11    29    1
    34    14    30    1
    35    17    31    1
    36    18    32    1
    37    19    33    1
    38    20    34    1
    39    23    35    1
    40    24    36    1
