@<TRIPOS>MOLECULE
*****
 35 39 0 0 0
SMALL
GASTEIGER

@<TRIPOS>ATOM
      1 O           5.1876   -2.0793    1.1312 O.2     1  UNL1       -0.2698
      2 C           4.5728   -1.0432    0.9830 C.2     1  UNL1        0.2512
      3 N           4.9274    0.2094    1.3800 N.am    1  UNL1       -0.2483
      4 C           3.9932    1.1421    1.0480 C.2     1  UNL1        0.2513
      5 O           4.0194    2.3367    1.2610 O.2     1  UNL1       -0.2698
      6 C           2.9178    0.4236    0.3657 C.ar    1  UNL1        0.0498
      7 C           1.7336    0.8855   -0.1745 C.ar    1  UNL1       -0.0411
      8 C           0.8799   -0.0549   -0.7778 C.ar    1  UNL1       -0.0165
      9 C          -0.3824    0.3740   -1.3787 C.ar    1  UNL1       -0.0081
     10 C          -0.4135    0.8729   -2.6962 C.ar    1  UNL1       -0.0533
     11 C          -1.6057    1.2802   -3.2871 C.ar    1  UNL1       -0.0592
     12 C          -2.8094    1.2052   -2.5879 C.ar    1  UNL1       -0.0377
     13 C          -2.7747    0.7114   -1.2783 C.ar    1  UNL1        0.0481
     14 N          -3.8059    0.5391   -0.3857 N.ar    1  UNL1       -0.3529
     15 C          -3.3486    0.0299    0.8026 C.ar    1  UNL1        0.0658
     16 C          -4.0384   -0.2926    1.9644 C.ar    1  UNL1        0.0514
     17 N          -3.3563   -0.7843    3.0214 N.ar    1  UNL1       -0.2612
     18 C          -2.0205   -0.9448    2.9174 C.ar    1  UNL1        0.0283
     19 C          -1.2733   -0.6430    1.7883 C.ar    1  UNL1       -0.0338
     20 C          -1.9697   -0.1342    0.6788 C.ar    1  UNL1        0.0109
     21 C          -1.5989    0.2936   -0.6468 C.ar    1  UNL1        0.0152
     22 C           1.2601   -1.4235   -0.8167 C.ar    1  UNL1       -0.0533
     23 C           2.4659   -1.8666   -0.2600 C.ar    1  UNL1       -0.0483
     24 C           3.2732   -0.9138    0.3249 C.ar    1  UNL1        0.0492
     25 H           5.7849    0.4228    1.8635 H       1  UNL1        0.1581
     26 H           1.4771    1.9402   -0.1281 H       1  UNL1        0.0631
     27 H           0.5096    0.9414   -3.2692 H       1  UNL1        0.0624
     28 H          -1.5990    1.6608   -4.3060 H       1  UNL1        0.0618
     29 H          -3.7387    1.5231   -3.0508 H       1  UNL1        0.0638
     30 H          -4.7712    0.7619   -0.5809 H       1  UNL1        0.1659
     31 H          -5.1085   -0.1731    2.0817 H       1  UNL1        0.0851
     32 H          -1.5378   -1.3414    3.8069 H       1  UNL1        0.0830
     33 H          -0.2026   -0.7978    1.7824 H       1  UNL1        0.0639
     34 H           0.5971   -2.1491   -1.2888 H       1  UNL1        0.0624
     35 H           2.7554   -2.9120   -0.2879 H       1  UNL1        0.0625
@<TRIPOS>BOND
     1     1     2    2
     2     2     3   am
     3     3     4   am
     4     4     5    2
     5     4     6    1
     6     6     7   ar
     7     7     8   ar
     8     8     9    1
     9     9    10   ar
    10    10    11   ar
    11    11    12   ar
    12    12    13   ar
    13    13    14   ar
    14    14    15   ar
    15    15    16   ar
    16    16    17   ar
    17    17    18   ar
    18    18    19   ar
    19    19    20   ar
    20    20    21   ar
    21     8    22   ar
    22    22    23   ar
    23    23    24   ar
    24    24     2    1
    25    24     6   ar
    26    21     9   ar
    27    21    13   ar
    28    20    15   ar
    29     3    25    1
    30     7    26    1
    31    10    27    1
    32    11    28    1
    33    12    29    1
    34    14    30    1
    35    16    31    1
    36    18    32    1
    37    19    33    1
    38    22    34    1
    39    23    35    1
