@<TRIPOS>MOLECULE
*****
 42 49 0 0 0
SMALL
GASTEIGER

@<TRIPOS>ATOM
      1 SI          1.9480   -0.2456   -0.6342 Si      1  UNL1        0.0000
      2 C           2.8908    0.5555    0.7757 C.2     1  UNL1        0.0000
      3 C           2.0244    1.0175    1.7017 C.2     1  UNL1        0.0000
      4 C           0.6071    0.7845    1.3831 C.ar    1  UNL1        0.0000
      5 N          -0.3208    1.2079    2.2426 N.ar    1  UNL1        0.0000
      6 C          -1.6148    0.9657    1.8971 C.ar    1  UNL1        0.0000
      7 C          -2.0903    0.3190    0.7356 C.ar    1  UNL1        0.0000
      8 C          -1.0366   -0.1130   -0.1500 C.ar    1  UNL1        0.0000
      9 C           0.3206    0.1261    0.1850 C.ar    1  UNL1        0.0000
     10 C          -1.5815   -0.7550   -1.2973 C.ar    1  UNL1        0.0000
     11 C          -0.9169   -1.3036   -2.3683 C.ar    1  UNL1        0.0000
     12 O          -1.8033   -1.8247   -3.2642 O.2     1  UNL1        0.0000
     13 C          -3.0518   -1.6110   -2.7680 C.ar    1  UNL1        0.0000
     14 C          -2.9711   -0.9577   -1.5624 C.ar    1  UNL1        0.0000
     15 C          -4.0452   -0.5633   -0.7448 C.ar    1  UNL1        0.0000
     16 C          -5.4176   -0.8045   -1.0824 C.ar    1  UNL1        0.0000
     17 C          -6.4738   -0.4087   -0.2639 C.ar    1  UNL1        0.0000
     18 C          -6.1086    0.2487    0.9267 C.ar    1  UNL1        0.0000
     19 N          -6.9867    0.7004    1.8349 N.ar    1  UNL1        0.0000
     20 S          -6.1015    1.3920    3.0473 S.2     1  UNL1        0.0000
     21 N          -4.5701    1.1505    2.4766 N.ar    1  UNL1        0.0000
     22 C          -4.6565    0.5104    1.2960 C.ar    1  UNL1        0.0000
     23 C          -3.5473    0.1006    0.4470 C.ar    1  UNL1        0.0000
     24 C           4.3107    0.6506    0.8381 C.ar    1  UNL1        0.0000
     25 S           5.1187    1.4253    2.2139 S.2     1  UNL1        0.0000
     26 C           6.7104    1.1691    1.6093 C.ar    1  UNL1        0.0000
     27 C           6.5971    0.5326    0.4345 C.ar    1  UNL1        0.0000
     28 O           7.6321    0.1495   -0.3613 O.2     1  UNL1        0.0000
     29 C           6.9270   -0.4352   -1.3921 C.ar    1  UNL1        0.0000
     30 C           5.5373   -0.4045   -1.2232 C.ar    1  UNL1        0.0000
     31 C           5.3188    0.2495    0.0110 C.ar    1  UNL1        0.0000
     32 H           2.1108    0.4717   -1.9248 H       1  UNL1        0.0000
     33 H           2.2046   -1.7040   -0.7514 H       1  UNL1        0.0000
     34 H           2.2666    1.5259    2.6250 H       1  UNL1        0.0000
     35 H          -2.2925    1.3451    2.6549 H       1  UNL1        0.0000
     36 H           0.1136   -1.4191   -2.6650 H       1  UNL1        0.0000
     37 H          -3.8570   -1.9798   -3.3877 H       1  UNL1        0.0000
     38 H          -5.6689   -1.3157   -2.0109 H       1  UNL1        0.0000
     39 H          -7.5103   -0.5915   -0.5200 H       1  UNL1        0.0000
     40 H           7.6089    1.4826    2.1200 H       1  UNL1        0.0000
     41 H           7.5523   -0.8324   -2.1812 H       1  UNL1        0.0000
     42 H           4.8235   -0.8116   -1.9230 H       1  UNL1        0.0000
@<TRIPOS>BOND
     1     1     2    1
     2     2     3    2
     3     3     4    1
     4     4     5   ar
     5     5     6   ar
     6     6     7   ar
     7     7     8   ar
     8     8     9   ar
     9     8    10   ar
    10    10    11   ar
    11    11    12   ar
    12    12    13   ar
    13    13    14   ar
    14    14    15   ar
    15    15    16   ar
    16    16    17   ar
    17    17    18   ar
    18    18    19   ar
    19    19    20   ar
    20    20    21   ar
    21    21    22   ar
    22    22    23   ar
    23     2    24    1
    24    24    25   ar
    25    25    26   ar
    26    26    27   ar
    27    27    28   ar
    28    28    29   ar
    29    29    30   ar
    30    30    31   ar
    31     9     1    1
    32    14    10   ar
    33    23    15   ar
    34    31    24   ar
    35     9     4   ar
    36    22    18   ar
    37    31    27   ar
    38    23     7   ar
    39     1    32    1
    40     1    33    1
    41     3    34    1
    42     6    35    1
    43    11    36    1
    44    13    37    1
    45    16    38    1
    46    17    39    1
    47    26    40    1
    48    29    41    1
    49    30    42    1
