@<TRIPOS>MOLECULE
*****
 43 49 0 0 0
SMALL
GASTEIGER

@<TRIPOS>ATOM
      1 SI         -1.3674   -1.7291    1.7811 Si      1  UNL1        0.0000
      2 C           0.2288   -1.1134    1.0077 C.ar    1  UNL1        0.0000
      3 C           1.6019   -1.2949    1.1095 C.ar    1  UNL1        0.0000
      4 C           2.1691   -0.4509    0.1575 C.ar    1  UNL1        0.0000
      5 N           1.1367    0.2083   -0.4987 N.ar    1  UNL1        0.0000
      6 C          -0.0551   -0.1921    0.0246 C.ar    1  UNL1        0.0000
      7 C          -1.4279    0.1457   -0.2490 C.ar    1  UNL1        0.0000
      8 C          -2.4034   -0.5457    0.5656 C.ar    1  UNL1        0.0000
      9 C          -3.8401   -0.3833    0.4843 C.ar    1  UNL1        0.0000
     10 C          -4.7535   -1.0806    1.3009 C.ar    1  UNL1        0.0000
     11 C          -6.1382   -0.8926    1.1884 C.ar    1  UNL1        0.0000
     12 C          -6.6625   -0.0008    0.2558 C.ar    1  UNL1        0.0000
     13 C          -5.8080    0.7144   -0.5763 C.ar    1  UNL1        0.0000
     14 C          -4.4114    0.5303   -0.4688 C.ar    1  UNL1        0.0000
     15 C          -3.4317    1.1966   -1.2557 C.ar    1  UNL1        0.0000
     16 C          -3.6205    2.1241   -2.2484 C.ar    1  UNL1        0.0000
     17 O          -2.4111    2.5172   -2.7534 O.2     1  UNL1        0.0000
     18 C          -1.4378    1.8339   -2.0758 C.ar    1  UNL1        0.0000
     19 C          -2.0172    1.0115   -1.1483 C.ar    1  UNL1        0.0000
     20 C           3.5590   -0.2277   -0.1913 C.ar    1  UNL1        0.0000
     21 C           4.0742   -0.4127   -1.4966 C.ar    1  UNL1        0.0000
     22 C           5.4463   -0.2010   -1.8495 C.ar    1  UNL1        0.0000
     23 C           6.4394    0.2194   -0.9384 C.ar    1  UNL1        0.0000
     24 C           5.9248    0.4058    0.3451 C.ar    1  UNL1        0.0000
     25 C           6.7040    0.8223    1.3960 C.ar    1  UNL1        0.0000
     26 S           5.7768    0.9770    2.8346 S.2     1  UNL1        0.0000
     27 C           4.3296    0.4868    2.0447 C.ar    1  UNL1        0.0000
     28 C           4.5447    0.1940    0.7175 C.ar    1  UNL1        0.0000
     29 H          -1.5712   -1.3120    3.1930 H       1  UNL1        0.0000
     30 H          -1.6846   -3.1529    1.4967 H       1  UNL1        0.0000
     31 H           2.1483   -1.9523    1.7743 H       1  UNL1        0.0000
     32 H           1.2690    0.8888   -1.2329 H       1  UNL1        0.0000
     33 H          -4.4066   -1.7901    2.0477 H       1  UNL1        0.0000
     34 H          -6.8100   -1.4500    1.8374 H       1  UNL1        0.0000
     35 H          -7.7381    0.1357    0.1790 H       1  UNL1        0.0000
     36 H          -6.2259    1.4075   -1.3002 H       1  UNL1        0.0000
     37 H          -4.4821    2.5938   -2.7006 H       1  UNL1        0.0000
     38 H          -0.4273    2.0576   -2.3817 H       1  UNL1        0.0000
     39 H           3.3998   -0.7553   -2.2821 H       1  UNL1        0.0000
     40 H           5.7398   -0.3816   -2.8844 H       1  UNL1        0.0000
     41 H           7.4709    0.3729   -1.2265 H       1  UNL1        0.0000
     42 H           7.7606    1.0510    1.4094 H       1  UNL1        0.0000
     43 H           3.4078    0.4468    2.6082 H       1  UNL1        0.0000
@<TRIPOS>BOND
     1     1     2    1
     2     2     3   ar
     3     3     4   ar
     4     4     5   ar
     5     5     6   ar
     6     6     7    1
     7     7     8   ar
     8     8     9   ar
     9     9    10   ar
    10    10    11   ar
    11    11    12   ar
    12    12    13   ar
    13    13    14   ar
    14    14    15   ar
    15    15    16   ar
    16    16    17   ar
    17    17    18   ar
    18    18    19   ar
    19     4    20    1
    20    20    21   ar
    21    21    22   ar
    22    22    23   ar
    23    23    24   ar
    24    24    25   ar
    25    25    26   ar
    26    26    27   ar
    27    27    28   ar
    28     8     1    1
    29    14     9   ar
    30    19    15   ar
    31    28    20   ar
    32     6     2   ar
    33    19     7   ar
    34    28    24   ar
    35     1    29    1
    36     1    30    1
    37     3    31    1
    38     5    32    1
    39    10    33    1
    40    11    34    1
    41    12    35    1
    42    13    36    1
    43    16    37    1
    44    18    38    1
    45    21    39    1
    46    22    40    1
    47    23    41    1
    48    25    42    1
    49    27    43    1
