@<TRIPOS>MOLECULE
*****
 35 39 0 0 0
SMALL
GASTEIGER

@<TRIPOS>ATOM
      1 O           4.8265   -1.7075    2.4137 O.2     1  UNL1       -0.2698
      2 C           4.3713   -1.3295    1.3539 C.2     1  UNL1        0.2512
      3 N           4.8858   -1.5061    0.1064 N.am    1  UNL1       -0.2483
      4 C           4.1060   -0.9477   -0.8594 C.2     1  UNL1        0.2513
      5 O           4.2933   -0.9343   -2.0586 O.2     1  UNL1       -0.2698
      6 C           2.9649   -0.3458   -0.1711 C.ar    1  UNL1        0.0498
      7 C           1.8784    0.3441   -0.6726 C.ar    1  UNL1       -0.0411
      8 C           0.9214    0.8124    0.2448 C.ar    1  UNL1       -0.0164
      9 C          -0.2475    1.5545   -0.2234 C.ar    1  UNL1       -0.0065
     10 C          -0.1643    2.9310   -0.5236 C.ar    1  UNL1       -0.0532
     11 C          -1.2763    3.6513   -0.9635 C.ar    1  UNL1       -0.0577
     12 C          -2.5149    3.0287   -1.1217 C.ar    1  UNL1       -0.0187
     13 C          -2.5765    1.6685   -0.8244 C.ar    1  UNL1        0.1368
     14 O          -3.6994    0.9084   -0.9247 O.2     1  UNL1       -0.4548
     15 C          -3.3599   -0.3556   -0.5595 C.ar    1  UNL1        0.1363
     16 C          -4.2338   -1.4409   -0.5302 C.ar    1  UNL1       -0.0187
     17 C          -3.6973   -2.6678   -0.1302 C.ar    1  UNL1       -0.0582
     18 C          -2.3507   -2.7840    0.2183 C.ar    1  UNL1       -0.0610
     19 C          -1.4959   -1.6725    0.1790 C.ar    1  UNL1       -0.0504
     20 C          -2.0128   -0.4224   -0.2182 C.ar    1  UNL1        0.0285
     21 C          -1.4969    0.9051   -0.3852 C.ar    1  UNL1        0.0356
     22 C           1.1046    0.5705    1.6330 C.ar    1  UNL1       -0.0533
     23 C           2.2148   -0.1329    2.1158 C.ar    1  UNL1       -0.0483
     24 C           3.1280   -0.5785    1.1837 C.ar    1  UNL1        0.0492
     25 H           5.7468   -1.9940   -0.0813 H       1  UNL1        0.1581
     26 H           1.7738    0.5100   -1.7412 H       1  UNL1        0.0631
     27 H           0.7861    3.4506   -0.4078 H       1  UNL1        0.0624
     28 H          -1.1780    4.7120   -1.1850 H       1  UNL1        0.0619
     29 H          -3.3906    3.5692   -1.4611 H       1  UNL1        0.0654
     30 H          -5.2755   -1.3317   -0.8069 H       1  UNL1        0.0654
     31 H          -4.3401   -3.5448   -0.0925 H       1  UNL1        0.0619
     32 H          -1.9564   -3.7512    0.5239 H       1  UNL1        0.0618
     33 H          -0.4516   -1.7873    0.4507 H       1  UNL1        0.0625
     34 H           0.3631    0.9378    2.3433 H       1  UNL1        0.0624
     35 H           2.3536   -0.3195    3.1758 H       1  UNL1        0.0625
@<TRIPOS>BOND
     1     1     2    2
     2     2     3   am
     3     3     4   am
     4     4     5    2
     5     4     6    1
     6     6     7   ar
     7     7     8   ar
     8     8     9    1
     9     9    10   ar
    10    10    11   ar
    11    11    12   ar
    12    12    13   ar
    13    13    14   ar
    14    14    15   ar
    15    15    16   ar
    16    16    17   ar
    17    17    18   ar
    18    18    19   ar
    19    19    20   ar
    20    20    21   ar
    21     8    22   ar
    22    22    23   ar
    23    23    24   ar
    24    24     2    1
    25    24     6   ar
    26    21     9   ar
    27    21    13   ar
    28    20    15   ar
    29     3    25    1
    30     7    26    1
    31    10    27    1
    32    11    28    1
    33    12    29    1
    34    16    30    1
    35    17    31    1
    36    18    32    1
    37    19    33    1
    38    22    34    1
    39    23    35    1
