@<TRIPOS>MOLECULE
*****
 34 38 0 0 0
SMALL
GASTEIGER

@<TRIPOS>ATOM
      1 O           4.8725    1.5334   -2.1502 O.2     1  UNL1       -0.2698
      2 C           4.3644    1.0784   -1.1462 C.2     1  UNL1        0.2512
      3 N           4.8728    1.0500    0.1160 N.am    1  UNL1       -0.2483
      4 C           4.0212    0.4684    1.0043 C.2     1  UNL1        0.2513
      5 O           4.1810    0.2988    2.1954 O.2     1  UNL1       -0.2698
      6 C           2.8373    0.0733    0.2425 C.ar    1  UNL1        0.0498
      7 C           1.6765   -0.5536    0.6521 C.ar    1  UNL1       -0.0411
      8 C           0.6931   -0.8082   -0.3199 C.ar    1  UNL1       -0.0164
      9 C          -0.5540   -1.4744    0.0498 C.ar    1  UNL1       -0.0065
     10 C          -0.6227   -2.8782    0.1736 C.ar    1  UNL1       -0.0532
     11 C          -1.8117   -3.5235    0.5184 C.ar    1  UNL1       -0.0577
     12 C          -2.9787   -2.7959    0.7535 C.ar    1  UNL1       -0.0186
     13 C          -2.8906   -1.4104    0.6304 C.ar    1  UNL1        0.1388
     14 O          -3.9263   -0.5538    0.8251 O.2     1  UNL1       -0.4368
     15 C          -3.4532    0.7042    0.6231 C.ar    1  UNL1        0.2284
     16 N          -4.2286    1.7982    0.7403 N.ar    1  UNL1       -0.2205
     17 C          -3.5647    2.9490    0.5048 C.ar    1  UNL1        0.0314
     18 C          -2.2214    3.0545    0.1715 C.ar    1  UNL1       -0.0428
     19 C          -1.4572    1.8924    0.0597 C.ar    1  UNL1       -0.0474
     20 C          -2.0984    0.6622    0.2934 C.ar    1  UNL1        0.0482
     21 C          -1.7291   -0.7204    0.2916 C.ar    1  UNL1        0.0372
     22 C           0.9251   -0.4246   -1.6684 C.ar    1  UNL1       -0.0533
     23 C           2.1104    0.2112   -2.0575 C.ar    1  UNL1       -0.0483
     24 C           3.0479    0.4458   -1.0739 C.ar    1  UNL1        0.0492
     25 H           5.7749    1.4224    0.3659 H       1  UNL1        0.1581
     26 H           1.5373   -0.8336    1.6927 H       1  UNL1        0.0631
     27 H           0.2680   -3.4792   -0.0062 H       1  UNL1        0.0624
     28 H          -1.8309   -4.6082    0.6044 H       1  UNL1        0.0619
     29 H          -3.9122   -3.2773    1.0216 H       1  UNL1        0.0654
     30 H          -4.1749    3.8454    0.5963 H       1  UNL1        0.0831
     31 H          -1.7743    4.0289    0.0020 H       1  UNL1        0.0633
     32 H          -0.4051    1.9481   -0.1964 H       1  UNL1        0.0626
     33 H           0.1641   -0.6281   -2.4225 H       1  UNL1        0.0624
     34 H           2.2875    0.5050   -3.0871 H       1  UNL1        0.0625
@<TRIPOS>BOND
     1     1     2    2
     2     2     3   am
     3     3     4   am
     4     4     5    2
     5     4     6    1
     6     6     7   ar
     7     7     8   ar
     8     8     9    1
     9     9    10   ar
    10    10    11   ar
    11    11    12   ar
    12    12    13   ar
    13    13    14   ar
    14    14    15   ar
    15    15    16   ar
    16    16    17   ar
    17    17    18   ar
    18    18    19   ar
    19    19    20   ar
    20    20    21   ar
    21     8    22   ar
    22    22    23   ar
    23    23    24   ar
    24    24     2    1
    25    24     6   ar
    26    21     9   ar
    27    21    13   ar
    28    20    15   ar
    29     3    25    1
    30     7    26    1
    31    10    27    1
    32    11    28    1
    33    12    29    1
    34    17    30    1
    35    18    31    1
    36    19    32    1
    37    22    33    1
    38    23    34    1
