@<TRIPOS>MOLECULE
*****
 34 38 0 0 0
SMALL
GASTEIGER

@<TRIPOS>ATOM
      1 O           4.7509   -2.4818    0.9812 O.2     1  UNL1       -0.2698
      2 C           4.2122   -1.6976    0.2274 C.2     1  UNL1        0.2512
      3 N           4.6178   -1.3070   -1.0115 N.am    1  UNL1       -0.2483
      4 C           3.7610   -0.4152   -1.5799 C.2     1  UNL1        0.2513
      5 O           3.8410    0.1107   -2.6708 O.2     1  UNL1       -0.2698
      6 C           2.6880   -0.1990   -0.6104 C.ar    1  UNL1        0.0498
      7 C           1.5677    0.6063   -0.6785 C.ar    1  UNL1       -0.0411
      8 C           0.6957    0.6073    0.4252 C.ar    1  UNL1       -0.0165
      9 C          -0.4964    1.4574    0.4237 C.ar    1  UNL1       -0.0090
     10 C          -0.3872    2.7874    0.8791 C.ar    1  UNL1       -0.0534
     11 C          -1.4853    3.6304    0.9019 C.ar    1  UNL1       -0.0601
     12 C          -2.7244    3.1697    0.4716 C.ar    1  UNL1       -0.0473
     13 C          -2.8476    1.8419    0.0127 C.ar    1  UNL1        0.0225
     14 S          -4.2999    1.1172   -0.5505 S.2     1  UNL1       -0.0687
     15 C          -3.5336   -0.3583   -0.8610 C.ar    1  UNL1        0.1093
     16 N          -4.2455   -1.3916   -1.3599 N.ar    1  UNL1       -0.2478
     17 C          -3.5303   -2.5107   -1.5690 C.ar    1  UNL1        0.0289
     18 C          -2.1814   -2.6500   -1.3129 C.ar    1  UNL1       -0.0429
     19 C          -1.4867   -1.5578   -0.7967 C.ar    1  UNL1       -0.0500
     20 C          -2.1775   -0.3450   -0.5515 C.ar    1  UNL1        0.0159
     21 C          -1.7605    0.9559   -0.0289 C.ar    1  UNL1        0.0061
     22 C           0.9965   -0.1971    1.5576 C.ar    1  UNL1       -0.0533
     23 C           2.1385   -1.0061    1.6003 C.ar    1  UNL1       -0.0483
     24 C           2.9647   -0.9833    0.4963 C.ar    1  UNL1        0.0492
     25 H           5.4548   -1.6437   -1.4598 H       1  UNL1        0.1581
     26 H           1.3752    1.2137   -1.5587 H       1  UNL1        0.0631
     27 H           0.5751    3.1654    1.2214 H       1  UNL1        0.0624
     28 H          -1.3813    4.6531    1.2563 H       1  UNL1        0.0618
     29 H          -3.5888    3.8292    0.4889 H       1  UNL1        0.0629
     30 H          -4.1012   -3.3439   -1.9723 H       1  UNL1        0.0830
     31 H          -1.6754   -3.5888   -1.5103 H       1  UNL1        0.0633
     32 H          -0.4270   -1.6584   -0.5937 H       1  UNL1        0.0625
     33 H           0.3236   -0.1877    2.4156 H       1  UNL1        0.0624
     34 H           2.3677   -1.6224    2.4638 H       1  UNL1        0.0625
@<TRIPOS>BOND
     1     1     2    2
     2     2     3   am
     3     3     4   am
     4     4     5    2
     5     4     6    1
     6     6     7   ar
     7     7     8   ar
     8     8     9    1
     9     9    10   ar
    10    10    11   ar
    11    11    12   ar
    12    12    13   ar
    13    13    14   ar
    14    14    15   ar
    15    15    16   ar
    16    16    17   ar
    17    17    18   ar
    18    18    19   ar
    19    19    20   ar
    20    20    21   ar
    21     8    22   ar
    22    22    23   ar
    23    23    24   ar
    24    24     2    1
    25    24     6   ar
    26    21     9   ar
    27    21    13   ar
    28    20    15   ar
    29     3    25    1
    30     7    26    1
    31    10    27    1
    32    11    28    1
    33    12    29    1
    34    17    30    1
    35    18    31    1
    36    19    32    1
    37    22    33    1
    38    23    34    1
