@<TRIPOS>MOLECULE
*****
 24 26 0 0 0
SMALL
GASTEIGER

@<TRIPOS>ATOM
      1 O          -4.5659    1.1664    1.1713 O.2     1  UNL1       -0.2698
      2 C          -3.8434    0.4124    0.5522 C.2     1  UNL1        0.2512
      3 N          -4.1977   -0.6428   -0.2298 N.am    1  UNL1       -0.2483
      4 C          -3.1180   -1.2691   -0.7738 C.2     1  UNL1        0.2513
      5 O          -3.1083   -2.2341   -1.5096 O.2     1  UNL1       -0.2698
      6 C          -1.9388   -0.5462   -0.2961 C.ar    1  UNL1        0.0498
      7 C          -0.5934   -0.7564   -0.5395 C.ar    1  UNL1       -0.0396
      8 C           0.3577    0.1055    0.0582 C.ar    1  UNL1        0.0029
      9 C           1.8097   -0.0998   -0.1881 C.ar    1  UNL1        0.0933
     10 C           2.8290    0.6840    0.3459 C.ar    1  UNL1       -0.0325
     11 C           4.1575    0.3918    0.0410 C.ar    1  UNL1       -0.0398
     12 C           4.4204   -0.6758   -0.7886 C.ar    1  UNL1        0.0500
     13 N           3.4380   -1.4312   -1.3032 N.ar    1  UNL1       -0.1571
     14 N           2.1307   -1.1373   -0.9983 N.ar    1  UNL1       -0.1493
     15 C          -0.1383    1.1546    0.8882 C.ar    1  UNL1       -0.0518
     16 C          -1.5091    1.3505    1.1223 C.ar    1  UNL1       -0.0483
     17 C          -2.3836    0.4799    0.5131 C.ar    1  UNL1        0.0492
     18 H          -5.1498   -0.9301   -0.3897 H       1  UNL1        0.1581
     19 H          -0.2929   -1.5795   -1.1852 H       1  UNL1        0.0632
     20 H           2.6264    1.5242    0.9985 H       1  UNL1        0.0640
     21 H           4.9670    0.9889    0.4458 H       1  UNL1        0.0634
     22 H           5.4284   -0.9591   -1.0667 H       1  UNL1        0.0848
     23 H           0.5431    1.8490    1.3750 H       1  UNL1        0.0624
     24 H          -1.8687    2.1544    1.7570 H       1  UNL1        0.0625
@<TRIPOS>BOND
     1     1     2    2
     2     2     3   am
     3     3     4   am
     4     4     5    2
     5     4     6    1
     6     6     7   ar
     7     7     8   ar
     8     8     9    1
     9     9    10   ar
    10    10    11   ar
    11    11    12   ar
    12    12    13   ar
    13    13    14   ar
    14     8    15   ar
    15    15    16   ar
    16    16    17   ar
    17    17     2    1
    18    17     6   ar
    19    14     9   ar
    20     3    18    1
    21     7    19    1
    22    10    20    1
    23    11    21    1
    24    12    22    1
    25    15    23    1
    26    16    24    1
