@<TRIPOS>MOLECULE
*****
 23 25 0 0 0
SMALL
GASTEIGER

@<TRIPOS>ATOM
      1 O          -4.3345   -1.3284   -0.4417 O.2     1  UNL1       -0.2698
      2 C          -3.5467   -0.4743   -0.0908 C.2     1  UNL1        0.2512
      3 N          -3.8143    0.7594    0.4180 N.am    1  UNL1       -0.2483
      4 C          -2.6819    1.4568    0.7074 C.2     1  UNL1        0.2513
      5 O          -2.5864    2.5738    1.1730 O.2     1  UNL1       -0.2698
      6 C          -1.5606    0.5898    0.3483 C.ar    1  UNL1        0.0498
      7 C          -0.1985    0.8069    0.4362 C.ar    1  UNL1       -0.0411
      8 C           0.6561   -0.2238    0.0101 C.ar    1  UNL1       -0.0142
      9 C           2.1006   -0.0657    0.0693 C.ar    1  UNL1        0.0193
     10 C           3.1321   -0.6749   -0.6849 C.ar    1  UNL1        0.0568
     11 N           4.3510   -0.2726   -0.3168 N.ar    1  UNL1       -0.1817
     12 N           4.1086    0.5970    0.6757 N.ar    1  UNL1       -0.2841
     13 C           2.7793    0.7544    0.9469 C.ar    1  UNL1        0.0300
     14 C           0.1005   -1.4310   -0.4904 C.ar    1  UNL1       -0.0532
     15 C          -1.2855   -1.6251   -0.5693 C.ar    1  UNL1       -0.0483
     16 C          -2.0898   -0.5914   -0.1403 C.ar    1  UNL1        0.0492
     17 H          -4.7452    1.1145    0.5667 H       1  UNL1        0.1581
     18 H           0.1739    1.7539    0.8136 H       1  UNL1        0.0631
     19 H           3.0469   -1.3920   -1.4912 H       1  UNL1        0.0854
     20 H           4.8995    1.0451    1.1272 H       1  UNL1        0.1882
     21 H           2.4530    1.4189    1.7340 H       1  UNL1        0.0830
     22 H           0.7518   -2.2420   -0.8142 H       1  UNL1        0.0624
     23 H          -1.7100   -2.5491   -0.9486 H       1  UNL1        0.0625
@<TRIPOS>BOND
     1     1     2    2
     2     2     3   am
     3     3     4   am
     4     4     5    2
     5     4     6    1
     6     6     7   ar
     7     7     8   ar
     8     8     9    1
     9     9    10   ar
    10    10    11   ar
    11    11    12   ar
    12    12    13   ar
    13     8    14   ar
    14    14    15   ar
    15    15    16   ar
    16    16     2    1
    17    16     6   ar
    18    13     9   ar
    19     3    17    1
    20     7    18    1
    21    10    19    1
    22    12    20    1
    23    13    21    1
    24    14    22    1
    25    15    23    1
