@<TRIPOS>MOLECULE
*****
 33 37 0 0 0
SMALL
GASTEIGER

@<TRIPOS>ATOM
      1 O           6.0992    0.8423   -1.7770 O.2     1  UNL1       -0.2698
      2 C           5.4644    0.7336   -0.7482 C.2     1  UNL1        0.2512
      3 N           5.8835    0.9541    0.5278 N.am    1  UNL1       -0.2483
      4 C           4.8975    0.7377    1.4407 C.2     1  UNL1        0.2513
      5 O           4.9535    0.8489    2.6480 O.2     1  UNL1       -0.2698
      6 C           3.7148    0.3325    0.6824 C.ar    1  UNL1        0.0498
      7 C           2.4450   -0.0032    1.1148 C.ar    1  UNL1       -0.0411
      8 C           1.4866   -0.3561    0.1451 C.ar    1  UNL1       -0.0157
      9 C           0.1173   -0.7203    0.5404 C.ar    1  UNL1        0.0009
     10 C          -0.1371   -1.7014    1.4977 C.ar    1  UNL1        0.0366
     11 N          -1.3516   -2.1082    1.9296 N.ar    1  UNL1       -0.2472
     12 C          -2.3862   -1.4701    1.3454 C.ar    1  UNL1        0.1107
     13 S          -3.9875   -1.8542    1.7674 S.2     1  UNL1       -0.0490
     14 C          -4.6084   -0.7044    0.6792 C.ar    1  UNL1        0.1107
     15 N          -5.9411   -0.5288    0.5537 N.ar    1  UNL1       -0.2478
     16 C          -6.2924    0.4143   -0.3419 C.ar    1  UNL1        0.0289
     17 C          -5.4128    1.1690   -1.0972 C.ar    1  UNL1       -0.0429
     18 C          -4.0453    0.9569   -0.9389 C.ar    1  UNL1       -0.0500
     19 C          -3.6135   -0.0198   -0.0133 C.ar    1  UNL1        0.0169
     20 C          -2.3026   -0.4739    0.3791 C.ar    1  UNL1        0.0175
     21 C          -1.0013   -0.0957   -0.0291 C.ar    1  UNL1       -0.0422
     22 C           1.8644   -0.3529   -1.2272 C.ar    1  UNL1       -0.0532
     23 C           3.1586   -0.0088   -1.6402 C.ar    1  UNL1       -0.0483
     24 C           4.0617    0.3304   -0.6563 C.ar    1  UNL1        0.0492
     25 H           6.8169    1.2465    0.7691 H       1  UNL1        0.1581
     26 H           2.2091    0.0231    2.1756 H       1  UNL1        0.0631
     27 H           0.6870   -2.2332    1.9722 H       1  UNL1        0.0836
     28 H          -7.3658    0.5593   -0.4453 H       1  UNL1        0.0830
     29 H          -5.7838    1.9102   -1.7973 H       1  UNL1        0.0633
     30 H          -3.3302    1.5341   -1.5172 H       1  UNL1        0.0625
     31 H          -0.8792    0.6869   -0.7732 H       1  UNL1        0.0631
     32 H           1.1373   -0.6372   -1.9886 H       1  UNL1        0.0624
     33 H           3.4420   -0.0115   -2.6879 H       1  UNL1        0.0625
@<TRIPOS>BOND
     1     1     2    2
     2     2     3   am
     3     3     4   am
     4     4     5    2
     5     4     6    1
     6     6     7   ar
     7     7     8   ar
     8     8     9    1
     9     9    10   ar
    10    10    11   ar
    11    11    12   ar
    12    12    13   ar
    13    13    14   ar
    14    14    15   ar
    15    15    16   ar
    16    16    17   ar
    17    17    18   ar
    18    18    19   ar
    19    19    20   ar
    20    20    21   ar
    21     8    22   ar
    22    22    23   ar
    23    23    24   ar
    24    24     2    1
    25    24     6   ar
    26    21     9   ar
    27    20    12   ar
    28    19    14   ar
    29     3    25    1
    30     7    26    1
    31    10    27    1
    32    16    28    1
    33    17    29    1
    34    18    30    1
    35    21    31    1
    36    22    32    1
    37    23    33    1
