@<TRIPOS>MOLECULE
*****
 34 38 0 0 0
SMALL
GASTEIGER

@<TRIPOS>ATOM
      1 O          -5.6341   -2.0176   -0.8122 O.2     1  UNL1       -0.2698
      2 C          -5.0485   -0.9562   -0.7527 C.2     1  UNL1        0.2512
      3 N          -5.4770    0.2677   -1.1653 N.am    1  UNL1       -0.2483
      4 C          -4.5469    1.2392   -0.9565 C.2     1  UNL1        0.2513
      5 O          -4.6224    2.4209   -1.2227 O.2     1  UNL1       -0.2698
      6 C          -3.3966    0.5827   -0.3367 C.ar    1  UNL1        0.0498
      7 C          -2.1860    1.1020    0.0817 C.ar    1  UNL1       -0.0411
      8 C          -1.2506    0.2171    0.6486 C.ar    1  UNL1       -0.0137
      9 C           0.0462    0.7071    1.1113 C.ar    1  UNL1        0.0241
     10 C           0.1939    1.6310    2.1473 C.ar    1  UNL1        0.0373
     11 N           1.3692    2.1100    2.6169 N.ar    1  UNL1       -0.2619
     12 C           2.5213    1.6771    2.0526 C.ar    1  UNL1        0.0374
     13 C           2.4976    0.7549    0.9988 C.ar    1  UNL1        0.0275
     14 C           1.2607    0.2886    0.5466 C.ar    1  UNL1        0.0583
     15 N           1.5187   -0.5775   -0.4941 N.ar    1  UNL1       -0.3535
     16 C           2.8692   -0.7006   -0.7114 C.ar    1  UNL1        0.0504
     17 C           3.5716   -1.4636   -1.6417 C.ar    1  UNL1       -0.0196
     18 C           4.9510   -1.3395   -1.5780 C.ar    1  UNL1        0.0295
     19 N           5.6181   -0.5546   -0.7040 N.ar    1  UNL1       -0.2625
     20 C           4.9113    0.1801    0.1901 C.ar    1  UNL1        0.0373
     21 C           3.5115    0.1247    0.2102 C.ar    1  UNL1        0.0269
     22 C          -1.5851   -1.1596    0.7734 C.ar    1  UNL1       -0.0532
     23 C          -2.8190   -1.6617    0.3406 C.ar    1  UNL1       -0.0483
     24 C          -3.7038   -0.7605   -0.2121 C.ar    1  UNL1        0.0492
     25 H          -6.3765    0.4345   -1.5874 H       1  UNL1        0.1581
     26 H          -1.9746    2.1618   -0.0369 H       1  UNL1        0.0631
     27 H          -0.6799    2.0264    2.6621 H       1  UNL1        0.0836
     28 H           3.4386    2.0868    2.4608 H       1  UNL1        0.0836
     29 H           0.8067   -1.0547   -1.0286 H       1  UNL1        0.1659
     30 H           3.0872   -2.1069   -2.3644 H       1  UNL1        0.0653
     31 H           5.5854   -1.8960   -2.2637 H       1  UNL1        0.0830
     32 H           5.4907    0.7954    0.8689 H       1  UNL1        0.0836
     33 H          -0.8735   -1.8471    1.2328 H       1  UNL1        0.0624
     34 H          -3.0746   -2.7118    0.4417 H       1  UNL1        0.0625
@<TRIPOS>BOND
     1     1     2    2
     2     2     3   am
     3     3     4   am
     4     4     5    2
     5     4     6    1
     6     6     7   ar
     7     7     8   ar
     8     8     9    1
     9     9    10   ar
    10    10    11   ar
    11    11    12   ar
    12    12    13   ar
    13    13    14   ar
    14    14    15   ar
    15    15    16   ar
    16    16    17   ar
    17    17    18   ar
    18    18    19   ar
    19    19    20   ar
    20    20    21   ar
    21     8    22   ar
    22    22    23   ar
    23    23    24   ar
    24    24     2    1
    25    24     6   ar
    26    14     9   ar
    27    21    16   ar
    28    21    13   ar
    29     3    25    1
    30     7    26    1
    31    10    27    1
    32    12    28    1
    33    15    29    1
    34    17    30    1
    35    18    31    1
    36    20    32    1
    37    22    33    1
    38    23    34    1
