@<TRIPOS>MOLECULE
*****
 30 34 0 0 0
SMALL
GASTEIGER

@<TRIPOS>ATOM
      1 O           6.2258   -1.1425    1.2500 O.2     1  UNL1       -0.2698
      2 C           5.4013   -0.3544    0.8352 C.2     1  UNL1        0.2512
      3 N           5.6028    0.9110    0.3762 N.am    1  UNL1       -0.2483
      4 C           4.4449    1.5117   -0.0119 C.2     1  UNL1        0.2513
      5 O           4.2923    2.6286   -0.4618 O.2     1  UNL1       -0.2698
      6 C           3.3779    0.5383    0.2173 C.ar    1  UNL1        0.0499
      7 C           2.0165    0.6342   -0.0045 C.ar    1  UNL1       -0.0366
      8 C           1.2214   -0.4801    0.3158 C.ar    1  UNL1        0.0377
      9 C          -0.2271   -0.4707    0.1154 C.ar    1  UNL1        0.2284
     10 N          -1.1038   -1.4287    0.3645 N.ar    1  UNL1       -0.2088
     11 C          -2.3033   -0.8814   -0.0088 C.ar    1  UNL1        0.1135
     12 C          -3.6038   -1.3918    0.0108 C.ar    1  UNL1        0.0120
     13 C          -4.6217   -0.5653   -0.4451 C.ar    1  UNL1        0.1573
     14 O          -5.9559   -0.8359   -0.5223 O.2     1  UNL1       -0.4424
     15 C          -6.4843    0.3127   -1.0355 C.ar    1  UNL1        0.1831
     16 N          -5.6209    1.2740   -1.2877 N.ar    1  UNL1       -0.2160
     17 C          -4.4210    0.7269   -0.9145 C.ar    1  UNL1        0.1129
     18 C          -3.1202    1.2365   -0.9336 C.ar    1  UNL1        0.0120
     19 C          -2.1029    0.4094   -0.4776 C.ar    1  UNL1        0.1580
     20 O          -0.7702    0.6806   -0.4008 O.2     1  UNL1       -0.4352
     21 C           1.8377   -1.6457    0.8474 C.ar    1  UNL1       -0.0487
     22 C           3.2205   -1.7175    1.0628 C.ar    1  UNL1       -0.0482
     23 C           3.9635   -0.6037    0.7357 C.ar    1  UNL1        0.0492
     24 H           6.5069    1.3528    0.3293 H       1  UNL1        0.1581
     25 H           1.5944    1.5481   -0.4130 H       1  UNL1        0.0633
     26 H          -3.8079   -2.3941    0.3682 H       1  UNL1        0.0677
     27 H          -7.5550    0.3239   -1.1852 H       1  UNL1        0.1255
     28 H          -2.9172    2.2390   -1.2913 H       1  UNL1        0.0677
     29 H           1.2216   -2.5113    1.0964 H       1  UNL1        0.0625
     30 H           3.6877   -2.6091    1.4689 H       1  UNL1        0.0625
@<TRIPOS>BOND
     1     1     2    2
     2     2     3   am
     3     3     4   am
     4     4     5    2
     5     4     6    1
     6     6     7   ar
     7     7     8   ar
     8     8     9    1
     9     9    10   ar
    10    10    11   ar
    11    11    12   ar
    12    12    13   ar
    13    13    14   ar
    14    14    15   ar
    15    15    16   ar
    16    16    17   ar
    17    17    18   ar
    18    18    19   ar
    19    19    20   ar
    20     8    21   ar
    21    21    22   ar
    22    22    23   ar
    23    23     2    1
    24    23     6   ar
    25    20     9   ar
    26    19    11   ar
    27    17    13   ar
    28     3    24    1
    29     7    25    1
    30    12    26    1
    31    15    27    1
    32    18    28    1
    33    21    29    1
    34    22    30    1
