@<TRIPOS>MOLECULE
*****
 30 34 0 0 0
SMALL
GASTEIGER

@<TRIPOS>ATOM
      1 O          -6.1863    0.8779   -1.8303 O.2     1  UNL1       -0.2698
      2 C          -5.5013    0.6360   -0.8579 C.2     1  UNL1        0.2512
      3 N          -5.9051    0.4302    0.4255 N.am    1  UNL1       -0.2483
      4 C          -4.8613    0.1825    1.2627 C.2     1  UNL1        0.2513
      5 O          -4.8905   -0.0388    2.4558 O.2     1  UNL1       -0.2698
      6 C          -3.6521    0.2317    0.4416 C.ar    1  UNL1        0.0498
      7 C          -2.3257    0.0505    0.7938 C.ar    1  UNL1       -0.0392
      8 C          -1.3527    0.1559   -0.2176 C.ar    1  UNL1        0.0079
      9 C           0.0969   -0.0163    0.0296 C.ar    1  UNL1        0.1095
     10 N           1.0114    0.0819   -0.9164 N.ar    1  UNL1       -0.2390
     11 C           2.2773   -0.1249   -0.3999 C.ar    1  UNL1        0.0801
     12 C           3.4793   -0.0944   -1.1181 C.ar    1  UNL1       -0.0194
     13 C           4.6931   -0.3214   -0.4697 C.ar    1  UNL1        0.0410
     14 S           6.2935   -0.3412   -1.1039 S.2     1  UNL1       -0.0753
     15 C           6.8970   -0.6872    0.4606 C.ar    1  UNL1        0.0659
     16 N           6.0066   -0.7901    1.4208 N.ar    1  UNL1       -0.2474
     17 C           4.7408   -0.5826    0.9002 C.ar    1  UNL1        0.0793
     18 C           3.5373   -0.6125    1.6163 C.ar    1  UNL1       -0.0194
     19 C           2.3246   -0.3853    0.9663 C.ar    1  UNL1        0.0416
     20 S           0.7279   -0.3647    1.5945 S.2     1  UNL1       -0.0671
     21 C          -1.7803    0.4424   -1.5470 C.ar    1  UNL1       -0.0513
     22 C          -3.1305    0.6218   -1.8786 C.ar    1  UNL1       -0.0483
     23 C          -4.0443    0.5091   -0.8553 C.ar    1  UNL1        0.0492
     24 H          -6.8677    0.4582    0.7213 H       1  UNL1        0.1581
     25 H          -2.0820   -0.1650    1.8294 H       1  UNL1        0.0632
     26 H           3.4517    0.1082   -2.1851 H       1  UNL1        0.0651
     27 H           7.9567   -0.8131    0.6417 H       1  UNL1        0.0907
     28 H           3.5650   -0.8152    2.6834 H       1  UNL1        0.0651
     29 H          -1.0368    0.5270   -2.3417 H       1  UNL1        0.0624
     30 H          -3.4425    0.8396   -2.8949 H       1  UNL1        0.0625
@<TRIPOS>BOND
     1     1     2    2
     2     2     3   am
     3     3     4   am
     4     4     5    2
     5     4     6    1
     6     6     7   ar
     7     7     8   ar
     8     8     9    1
     9     9    10   ar
    10    10    11   ar
    11    11    12   ar
    12    12    13   ar
    13    13    14   ar
    14    14    15   ar
    15    15    16   ar
    16    16    17   ar
    17    17    18   ar
    18    18    19   ar
    19    19    20   ar
    20     8    21   ar
    21    21    22   ar
    22    22    23   ar
    23    23     2    1
    24    23     6   ar
    25    20     9   ar
    26    19    11   ar
    27    17    13   ar
    28     3    24    1
    29     7    25    1
    30    12    26    1
    31    15    27    1
    32    18    28    1
    33    21    29    1
    34    22    30    1
