@<TRIPOS>MOLECULE
*****
 28 31 0 0 0
SMALL
GASTEIGER

@<TRIPOS>ATOM
      1 O           5.6847   -1.8703   -0.5707 O.2     1  UNL1       -0.2698
      2 C           4.9266   -0.9917   -0.2147 C.2     1  UNL1        0.2512
      3 N           5.2336    0.2149    0.3343 N.am    1  UNL1       -0.2483
      4 C           4.1248    0.9541    0.6129 C.2     1  UNL1        0.2513
      5 O           4.0700    2.0632    1.1026 O.2     1  UNL1       -0.2698
      6 C           2.9769    0.1454    0.2030 C.ar    1  UNL1        0.0498
      7 C           1.6223    0.4126    0.2612 C.ar    1  UNL1       -0.0392
      8 C           0.7237   -0.5660   -0.2130 C.ar    1  UNL1        0.0079
      9 C          -0.7265   -0.2735   -0.1479 C.ar    1  UNL1        0.1095
     10 N          -1.2145    0.8542    0.3307 N.ar    1  UNL1       -0.2390
     11 C          -2.5971    0.8564    0.2701 C.ar    1  UNL1        0.0789
     12 C          -3.4424    1.9009    0.6958 C.ar    1  UNL1       -0.0352
     13 C          -4.8293    1.7662    0.5743 C.ar    1  UNL1       -0.0597
     14 C          -5.3798    0.6075    0.0357 C.ar    1  UNL1       -0.0606
     15 C          -4.5617   -0.4424   -0.3937 C.ar    1  UNL1       -0.0459
     16 C          -3.1704   -0.2951   -0.2664 C.ar    1  UNL1        0.0395
     17 S          -1.9178   -1.3897   -0.6962 S.2     1  UNL1       -0.0672
     18 C           1.2518   -1.7822   -0.7291 C.ar    1  UNL1       -0.0513
     19 C           2.6322   -2.0305   -0.7778 C.ar    1  UNL1       -0.0483
     20 C           3.4680   -1.0436   -0.3027 C.ar    1  UNL1        0.0492
     21 H           6.1741    0.5270    0.5147 H       1  UNL1        0.1581
     22 H           1.2704    1.3592    0.6655 H       1  UNL1        0.0632
     23 H          -3.0084    2.8031    1.1154 H       1  UNL1        0.0639
     24 H          -5.4784    2.5743    0.9039 H       1  UNL1        0.0618
     25 H          -6.4604    0.5155   -0.0533 H       1  UNL1        0.0618
     26 H          -4.9928   -1.3460   -0.8138 H       1  UNL1        0.0629
     27 H           0.5917   -2.5624   -1.1047 H       1  UNL1        0.0624
     28 H           3.0288   -2.9607   -1.1728 H       1  UNL1        0.0625
@<TRIPOS>BOND
     1     1     2    2
     2     2     3   am
     3     3     4   am
     4     4     5    2
     5     4     6    1
     6     6     7   ar
     7     7     8   ar
     8     8     9    1
     9     9    10   ar
    10    10    11   ar
    11    11    12   ar
    12    12    13   ar
    13    13    14   ar
    14    14    15   ar
    15    15    16   ar
    16    16    17   ar
    17     8    18   ar
    18    18    19   ar
    19    19    20   ar
    20    20     2    1
    21    20     6   ar
    22    17     9   ar
    23    16    11   ar
    24     3    21    1
    25     7    22    1
    26    12    23    1
    27    13    24    1
    28    14    25    1
    29    15    26    1
    30    18    27    1
    31    19    28    1
