@<TRIPOS>MOLECULE
*****
 37 42 0 0 0
SMALL
GASTEIGER

@<TRIPOS>ATOM
      1 SI         -0.5354   -1.1278    1.6920 Si      1  UNL1        0.0000
      2 C           1.1442   -0.6305    1.0496 C.ar    1  UNL1        0.0000
      3 C           2.4979   -0.7679    1.3297 C.ar    1  UNL1        0.0000
      4 C           3.1662   -0.0672    0.3287 C.ar    1  UNL1        0.0000
      5 N           2.2144    0.4727   -0.5256 N.ar    1  UNL1        0.0000
      6 C           0.9718    0.1274   -0.0839 C.ar    1  UNL1        0.0000
      7 C          -0.3685    0.4042   -0.5698 C.ar    1  UNL1        0.0000
      8 C          -0.7308    1.1352   -1.6738 C.ar    1  UNL1        0.0000
      9 N          -2.0203    1.3305   -2.0358 N.ar    1  UNL1        0.0000
     10 C          -3.0079    0.7936   -1.2955 C.ar    1  UNL1        0.0000
     11 C          -4.3166    1.0608   -1.7650 C.ar    1  UNL1        0.0000
     12 C          -5.5229    0.6207   -1.1807 C.ar    1  UNL1        0.0000
     13 C          -5.2845   -0.1371   -0.0443 C.ar    1  UNL1        0.0000
     14 C          -6.3168   -0.6700    0.6873 C.ar    1  UNL1        0.0000
     15 S          -5.7285   -1.5543    2.0307 S.2     1  UNL1        0.0000
     16 C          -4.0903   -1.2161    1.6216 C.ar    1  UNL1        0.0000
     17 C          -3.9766   -0.4461    0.4873 C.ar    1  UNL1        0.0000
     18 C          -2.7491    0.0068   -0.1148 C.ar    1  UNL1        0.0000
     19 C          -1.3866   -0.1776    0.2352 C.ar    1  UNL1        0.0000
     20 C           4.5704    0.1257    0.1221 C.ar    1  UNL1        0.0000
     21 C           5.2463    0.8166   -0.8672 C.ar    1  UNL1        0.0000
     22 C           6.6356    0.6989   -0.6123 C.ar    1  UNL1        0.0000
     23 C           6.7780   -0.0602    0.5253 C.ar    1  UNL1        0.0000
     24 N           5.5243   -0.4016    0.9614 N.ar    1  UNL1        0.0000
     25 H          -0.8173   -2.5840    1.6081 H       1  UNL1        0.0000
     26 H          -0.8958   -0.5213    2.9993 H       1  UNL1        0.0000
     27 H           2.9534   -1.3044    2.1510 H       1  UNL1        0.0000
     28 H           2.4252    1.0304   -1.3406 H       1  UNL1        0.0000
     29 H           0.0022    1.6010   -2.3229 H       1  UNL1        0.0000
     30 H          -4.3976    1.6681   -2.6695 H       1  UNL1        0.0000
     31 H          -6.4937    0.8618   -1.5924 H       1  UNL1        0.0000
     32 H          -7.3818   -0.5938    0.5146 H       1  UNL1        0.0000
     33 H          -3.3351   -1.6252    2.2701 H       1  UNL1        0.0000
     34 H           4.8002    1.3541   -1.6927 H       1  UNL1        0.0000
     35 H           7.4422    1.1226   -1.1966 H       1  UNL1        0.0000
     36 H           7.6585   -0.3868    1.0619 H       1  UNL1        0.0000
     37 H           5.3254   -0.9593    1.7799 H       1  UNL1        0.0000
@<TRIPOS>BOND
     1     1     2    1
     2     2     3   ar
     3     3     4   ar
     4     4     5   ar
     5     5     6   ar
     6     6     7    1
     7     7     8   ar
     8     8     9   ar
     9     9    10   ar
    10    10    11   ar
    11    11    12   ar
    12    12    13   ar
    13    13    14   ar
    14    14    15   ar
    15    15    16   ar
    16    16    17   ar
    17    17    18   ar
    18    18    19   ar
    19     4    20    1
    20    20    21   ar
    21    21    22   ar
    22    22    23   ar
    23    23    24   ar
    24    19     1    1
    25    24    20   ar
    26     6     2   ar
    27    19     7   ar
    28    18    10   ar
    29    17    13   ar
    30     1    25    1
    31     1    26    1
    32     3    27    1
    33     5    28    1
    34     8    29    1
    35    11    30    1
    36    12    31    1
    37    14    32    1
    38    16    33    1
    39    21    34    1
    40    22    35    1
    41    23    36    1
    42    24    37    1
