@<TRIPOS>MOLECULE
*****
 30 34 0 0 0
SMALL
GASTEIGER

@<TRIPOS>ATOM
      1 O          -6.2391   -0.5117    1.4271 O.2     1  UNL1       -0.2698
      2 C          -5.4397    0.0384    0.6978 C.2     1  UNL1        0.2512
      3 N          -5.6806    0.9369   -0.2948 N.am    1  UNL1       -0.2483
      4 C          -4.5376    1.3482   -0.9100 C.2     1  UNL1        0.2513
      5 O          -4.4265    2.1382   -1.8242 O.2     1  UNL1       -0.2698
      6 C          -3.4380    0.6444   -0.2493 C.ar    1  UNL1        0.0499
      7 C          -2.0756    0.6880   -0.4738 C.ar    1  UNL1       -0.0382
      8 C          -1.2425   -0.1129    0.3317 C.ar    1  UNL1        0.0181
      9 C           0.2088   -0.0720    0.0989 C.ar    1  UNL1        0.1422
     10 N           0.8110    0.6686   -0.8220 N.ar    1  UNL1       -0.2068
     11 C           2.1467    0.4092   -0.6979 C.ar    1  UNL1        0.1998
     12 N           3.1642    0.9318   -1.4237 N.ar    1  UNL1       -0.2020
     13 C           4.3929    0.4824   -1.0694 C.ar    1  UNL1        0.1992
     14 N           5.5998    0.8260   -1.6156 N.ar    1  UNL1       -0.2152
     15 C           6.4868    0.1285   -0.9349 C.ar    1  UNL1        0.0973
     16 N           5.9036   -0.6522    0.0293 N.ar    1  UNL1       -0.3279
     17 C           4.5602   -0.4403   -0.0397 C.ar    1  UNL1        0.1791
     18 N           3.5762   -0.9847    0.7066 N.ar    1  UNL1       -0.2052
     19 C           2.3750   -0.5086    0.3183 C.ar    1  UNL1        0.1795
     20 N           1.1415   -0.8019    0.8108 N.ar    1  UNL1       -0.3214
     21 C          -1.8274   -0.9288    1.3362 C.ar    1  UNL1       -0.0504
     22 C          -3.2143   -0.9555    1.5445 C.ar    1  UNL1       -0.0482
     23 C          -3.9911   -0.1558    0.7332 C.ar    1  UNL1        0.0492
     24 H          -6.5993    1.2630   -0.5484 H       1  UNL1        0.1581
     25 H          -1.6677    1.3271   -1.2542 H       1  UNL1        0.0632
     26 H           7.5576    0.1465   -1.0928 H       1  UNL1        0.1028
     27 H           6.3705   -1.2712    0.6745 H       1  UNL1        0.1683
     28 H           0.9633   -1.4443    1.5654 H       1  UNL1        0.1689
     29 H          -1.2143   -1.5591    1.9756 H       1  UNL1        0.0625
     30 H          -3.6642   -1.5783    2.3117 H       1  UNL1        0.0625
@<TRIPOS>BOND
     1     1     2    2
     2     2     3   am
     3     3     4   am
     4     4     5    2
     5     4     6    1
     6     6     7   ar
     7     7     8   ar
     8     8     9    1
     9     9    10   ar
    10    10    11   ar
    11    11    12   ar
    12    12    13   ar
    13    13    14   ar
    14    14    15   ar
    15    15    16   ar
    16    16    17   ar
    17    17    18   ar
    18    18    19   ar
    19    19    20   ar
    20     8    21   ar
    21    21    22   ar
    22    22    23   ar
    23    23     2    1
    24    23     6   ar
    25    20     9   ar
    26    19    11   ar
    27    17    13   ar
    28     3    24    1
    29     7    25    1
    30    15    26    1
    31    16    27    1
    32    20    28    1
    33    21    29    1
    34    22    30    1
