@<TRIPOS>MOLECULE
*****
 24 25 0 0 0
SMALL
GASTEIGER

@<TRIPOS>ATOM
      1 O           4.2317   -1.0856    1.1129 O.2     1  UNL1       -0.2698
      2 C           3.4754   -0.3668    0.4923 C.2     1  UNL1        0.2512
      3 N           3.7845    0.7067   -0.2851 N.am    1  UNL1       -0.2483
      4 C           2.6790    1.2846   -0.8301 C.2     1  UNL1        0.2513
      5 C           1.5336    0.5057   -0.3618 C.ar    1  UNL1        0.0509
      6 C           0.1820    0.6595   -0.6185 C.ar    1  UNL1       -0.0278
      7 C          -0.7358   -0.2339   -0.0303 C.ar    1  UNL1        0.0300
      8 N          -2.1123   -0.1393   -0.2701 N.pl3   1  UNL1       -0.3360
      9 C          -3.0406   -0.8083    0.6417 C.3     1  UNL1        0.0004
     10 C          -2.6436    1.0376   -0.9583 C.3     1  UNL1        0.0004
     11 C          -0.1943   -1.2696    0.7870 C.ar    1  UNL1       -0.0399
     12 C           1.1804   -1.4123    1.0370 C.ar    1  UNL1       -0.0471
     13 C           2.0206   -0.5013    0.4452 C.ar    1  UNL1        0.0493
     14 O           2.6239    2.2541   -1.5590 O.2     1  UNL1       -0.2698
     15 H           4.7233    1.0380   -0.4368 H       1  UNL1        0.1581
     16 H          -0.1253    1.4708   -1.2685 H       1  UNL1        0.0644
     17 H          -2.8944   -0.4671    1.6725 H       1  UNL1        0.0428
     18 H          -4.0830   -0.6033    0.3728 H       1  UNL1        0.0428
     19 H          -2.9263   -1.8964    0.5935 H       1  UNL1        0.0428
     20 H          -3.7243    0.9500   -1.1167 H       1  UNL1        0.0428
     21 H          -2.4657    1.9472   -0.3743 H       1  UNL1        0.0428
     22 H          -2.2031    1.1468   -1.9552 H       1  UNL1        0.0428
     23 H          -0.8488   -2.0067    1.2459 H       1  UNL1        0.0636
     24 H           1.5633   -2.2104    1.6641 H       1  UNL1        0.0626
@<TRIPOS>BOND
     1     1     2    2
     2     2     3   am
     3     3     4   am
     4     4     5    1
     5     5     6   ar
     6     6     7   ar
     7     7     8    1
     8     8     9    1
     9     8    10    1
    10     7    11   ar
    11    11    12   ar
    12    12    13   ar
    13     4    14    2
    14    13     2    1
    15    13     5   ar
    16     3    15    1
    17     6    16    1
    18     9    17    1
    19     9    18    1
    20     9    19    1
    21    10    20    1
    22    10    21    1
    23    10    22    1
    24    11    23    1
    25    12    24    1
