@<TRIPOS>MOLECULE
*****
 18 19 0 0 0
SMALL
GASTEIGER

@<TRIPOS>ATOM
      1 O           2.9112   -1.7472    0.8561 O.2     1  UNL1       -0.2698
      2 C           2.3021   -0.7444    0.5443 C.2     1  UNL1        0.2512
      3 N           2.7896    0.5140    0.3665 N.am    1  UNL1       -0.2483
      4 C           1.8183    1.4007    0.0154 C.2     1  UNL1        0.2513
      5 C           0.5690    0.6436   -0.0381 C.ar    1  UNL1        0.0509
      6 C          -0.7124    1.0514   -0.3544 C.ar    1  UNL1       -0.0282
      7 C          -1.7316    0.0932   -0.2998 C.ar    1  UNL1        0.0253
      8 N          -3.0207    0.4214   -0.7333 N.pl3   1  UNL1       -0.3579
      9 C          -1.4096   -1.2560   -0.0203 C.ar    1  UNL1       -0.0403
     10 C          -0.1031   -1.6495    0.2960 C.ar    1  UNL1       -0.0472
     11 C           0.8653   -0.6691    0.2836 C.ar    1  UNL1        0.0493
     12 O           1.9344    2.5879   -0.2103 O.2     1  UNL1       -0.2698
     13 H           3.7597    0.7605    0.4786 H       1  UNL1        0.1581
     14 H          -0.9074    2.0808   -0.6356 H       1  UNL1        0.0644
     15 H          -3.7514   -0.1944   -0.3889 H       1  UNL1        0.1423
     16 H          -3.2640    1.4024   -0.6298 H       1  UNL1        0.1423
     17 H          -2.1907   -2.0135   -0.0529 H       1  UNL1        0.0636
     18 H           0.1415   -2.6817    0.5231 H       1  UNL1        0.0626
@<TRIPOS>BOND
     1     1     2    2
     2     2     3   am
     3     3     4   am
     4     4     5    1
     5     5     6   ar
     6     6     7   ar
     7     7     8    1
     8     7     9   ar
     9     9    10   ar
    10    10    11   ar
    11     4    12    2
    12    11     2    1
    13    11     5   ar
    14     3    13    1
    15     6    14    1
    16     8    15    1
    17     8    16    1
    18     9    17    1
    19    10    18    1
