@<TRIPOS>MOLECULE
*****
 36 38 0 0 0
SMALL
GASTEIGER

@<TRIPOS>ATOM
      1 O           5.3524    0.6153    0.2392 O.2     1  UNL1       -0.2265
      2 C           4.2320    0.1605    0.0987 C.2     1  UNL1        0.4007
      3 N           3.5766    0.0353   -1.0954 N.am    1  UNL1       -0.2775
      4 C           2.4500   -0.8191   -0.9267 C.3     1  UNL1        0.0534
      5 C           2.1696   -0.6910    0.5568 C.3     1  UNL1        0.1360
      6 C           1.1476    0.4034    0.9143 C.3     1  UNL1        0.0559
      7 N          -0.1806    0.1661    0.3051 N.pl3   1  UNL1       -0.2964
      8 C          -0.8904   -0.9986    0.6861 C.ar    1  UNL1        0.0340
      9 C          -1.7799   -1.5943   -0.2279 C.ar    1  UNL1       -0.0403
     10 C          -2.4939   -2.7528    0.0910 C.ar    1  UNL1       -0.0600
     11 C          -2.3351   -3.3433    1.3394 C.ar    1  UNL1       -0.0616
     12 C          -1.4663   -2.7730    2.2644 C.ar    1  UNL1       -0.0600
     13 C          -0.7526   -1.6131    1.9401 C.ar    1  UNL1       -0.0403
     14 C          -0.7641    1.2948   -0.3320 C.ar    1  UNL1        0.0340
     15 C          -0.0383    2.0997   -1.2262 C.ar    1  UNL1       -0.0403
     16 C          -0.6255    3.2031   -1.8554 C.ar    1  UNL1       -0.0600
     17 C          -1.9559    3.5236   -1.6053 C.ar    1  UNL1       -0.0616
     18 C          -2.6990    2.7400   -0.7291 C.ar    1  UNL1       -0.0600
     19 C          -2.1085    1.6378   -0.1031 C.ar    1  UNL1       -0.0403
     20 O           3.4553   -0.3305    1.1097 O.3     1  UNL1       -0.4439
     21 H           4.1280    0.1104   -1.9406 H       1  UNL1        0.1521
     22 H           1.6350   -0.5362   -1.5949 H       1  UNL1        0.0500
     23 H           2.7752   -1.8358   -1.1739 H       1  UNL1        0.0500
     24 H           1.8760   -1.6587    0.9745 H       1  UNL1        0.0766
     25 H           1.0601    0.4868    2.0056 H       1  UNL1        0.0505
     26 H           1.5694    1.3778    0.6350 H       1  UNL1        0.0505
     27 H          -1.9119   -1.1568   -1.2157 H       1  UNL1        0.0636
     28 H          -3.1714   -3.1891   -0.6380 H       1  UNL1        0.0618
     29 H          -2.8904   -4.2424    1.5931 H       1  UNL1        0.0618
     30 H          -1.3468   -3.2245    3.2462 H       1  UNL1        0.0618
     31 H          -0.1092   -1.1916    2.7063 H       1  UNL1        0.0636
     32 H           0.9950    1.8691   -1.4689 H       1  UNL1        0.0636
     33 H          -0.0413    3.8076   -2.5444 H       1  UNL1        0.0618
     34 H          -2.4126    4.3807   -2.0927 H       1  UNL1        0.0618
     35 H          -3.7383    2.9841   -0.5257 H       1  UNL1        0.0618
     36 H          -2.7104    1.0547    0.5904 H       1  UNL1        0.0636
@<TRIPOS>BOND
     1     1     2    2
     2     2     3   am
     3     3     4    1
     4     4     5    1
     5     5     6    1
     6     6     7    1
     7     7     8    1
     8     8     9   ar
     9     9    10   ar
    10    10    11   ar
    11    11    12   ar
    12    12    13   ar
    13     7    14    1
    14    14    15   ar
    15    15    16   ar
    16    16    17   ar
    17    17    18   ar
    18    18    19   ar
    19     5    20    1
    20    20     2    1
    21    13     8   ar
    22    19    14   ar
    23     3    21    1
    24     4    22    1
    25     4    23    1
    26     5    24    1
    27     6    25    1
    28     6    26    1
    29     9    27    1
    30    10    28    1
    31    11    29    1
    32    12    30    1
    33    13    31    1
    34    15    32    1
    35    16    33    1
    36    17    34    1
    37    18    35    1
    38    19    36    1
