@<TRIPOS>MOLECULE
*****
 27 29 0 0 0
SMALL
GASTEIGER

@<TRIPOS>ATOM
      1 O          -1.8152    1.8910    2.6370 O.2     1  UNL1       -0.2449
      2 C          -1.5198    1.2750    1.6331 C.2     1  UNL1        0.3415
      3 O          -0.2839    1.1912    1.0618 O.3     1  UNL1       -0.4349
      4 C          -0.3072    0.4407   -0.1644 C.3     1  UNL1        0.1966
      5 N           0.6004   -0.6830   -0.1066 N.pl3   1  UNL1       -0.2906
      6 C           1.9512   -0.3487   -0.1172 C.ar    1  UNL1        0.1216
      7 C           2.5415    0.3637   -1.1575 C.ar    1  UNL1       -0.0208
      8 C           3.9085    0.6392   -1.1087 C.ar    1  UNL1       -0.0431
      9 C           4.6475    0.1842   -0.0271 C.ar    1  UNL1        0.0361
     10 BR          6.4960    0.5262    0.0908 Br      1  UNL1       -0.0487
     11 C           3.9908   -0.5345    0.9559 C.ar    1  UNL1        0.0436
     12 N           2.6645   -0.8146    0.9249 N.ar    1  UNL1       -0.2393
     13 C          -1.7092   -0.0361   -0.2476 C.ar    1  UNL1        0.0252
     14 C          -2.3349   -0.8455   -1.1829 C.ar    1  UNL1       -0.0527
     15 C          -3.6974   -1.1172   -1.0189 C.ar    1  UNL1       -0.0613
     16 C          -4.4117   -0.5801    0.0661 C.ar    1  UNL1       -0.0610
     17 C          -3.7698    0.2328    1.0013 C.ar    1  UNL1       -0.0473
     18 C          -2.4216    0.4818    0.8124 C.ar    1  UNL1        0.0673
     19 H          -0.1033    1.1226   -0.9984 H       1  UNL1        0.1007
     20 H           0.4851   -1.1776    0.7771 H       1  UNL1        0.1512
     21 H           1.9602    0.6887   -2.0129 H       1  UNL1        0.0652
     22 H           4.3784    1.1952   -1.9144 H       1  UNL1        0.0630
     23 H           4.5164   -0.9226    1.8235 H       1  UNL1        0.0841
     24 H          -1.7817   -1.2667   -2.0178 H       1  UNL1        0.0622
     25 H          -4.2110   -1.7541   -1.7368 H       1  UNL1        0.0618
     26 H          -5.4705   -0.8040    0.1786 H       1  UNL1        0.0618
     27 H          -4.3032    0.6524    1.8486 H       1  UNL1        0.0626
@<TRIPOS>BOND
     1     1     2    2
     2     2     3    1
     3     3     4    1
     4     4     5    1
     5     5     6    1
     6     6     7   ar
     7     7     8   ar
     8     8     9   ar
     9     9    10    1
    10     9    11   ar
    11    11    12   ar
    12     4    13    1
    13    13    14   ar
    14    14    15   ar
    15    15    16   ar
    16    16    17   ar
    17    17    18   ar
    18    18     2    1
    19    12     6   ar
    20    18    13   ar
    21     4    19    1
    22     5    20    1
    23     7    21    1
    24     8    22    1
    25    11    23    1
    26    14    24    1
    27    15    25    1
    28    16    26    1
    29    17    27    1
