@<TRIPOS>MOLECULE
*****
 21 22 0 0 0
SMALL
GASTEIGER

@<TRIPOS>ATOM
      1 O          -1.6211    3.6224   -0.3310 O.2     1  UNL1       -0.2452
      2 C          -1.1693    2.4875   -0.2396 C.ar    1  UNL1        0.3376
      3 O           0.1890    2.2270   -0.2175 O.2     1  UNL1       -0.4191
      4 C           0.6779    0.9113   -0.1115 C.ar    1  UNL1        0.1781
      5 C          -0.1877   -0.1835   -0.0244 C.ar    1  UNL1        0.0263
      6 C           0.3804   -1.4611    0.0785 C.ar    1  UNL1       -0.0117
      7 C           1.7688   -1.6206    0.0926 C.ar    1  UNL1        0.1683
      8 F           2.2737   -2.8583    0.1923 F       1  UNL1       -0.2015
      9 C           2.6137   -0.5215    0.0051 C.ar    1  UNL1        0.1915
     10 O           3.9692   -0.6946    0.0202 O.3     1  UNL1       -0.5018
     11 C           2.0626    0.7476   -0.0972 C.ar    1  UNL1        0.2101
     12 F           2.8783    1.8096   -0.1817 F       1  UNL1       -0.1976
     13 C          -1.6366    0.0599   -0.0452 C.ar    1  UNL1       -0.0329
     14 C          -2.5983   -1.0886    0.0461 C.3     1  UNL1       -0.0388
     15 C          -2.0677    1.3259   -0.1472 C.ar    1  UNL1        0.0265
     16 H          -0.2292   -2.3570    0.1499 H       1  UNL1        0.0654
     17 H           4.3811    0.1873   -0.0502 H       1  UNL1        0.2924
     18 H          -3.6402   -0.7505    0.0180 H       1  UNL1        0.0278
     19 H          -2.4596   -1.7794   -0.7924 H       1  UNL1        0.0278
     20 H          -2.4612   -1.6369    0.9842 H       1  UNL1        0.0278
     21 H          -3.1236    1.5733   -0.1679 H       1  UNL1        0.0692
@<TRIPOS>BOND
     1     1     2    2
     2     2     3   ar
     3     3     4   ar
     4     4     5   ar
     5     5     6   ar
     6     6     7   ar
     7     7     8    1
     8     7     9   ar
     9     9    10    1
    10     9    11   ar
    11    11    12    1
    12     5    13   ar
    13    13    14    1
    14    13    15   ar
    15    15     2   ar
    16    11     4   ar
    17     6    16    1
    18    10    17    1
    19    14    18    1
    20    14    19    1
    21    14    20    1
    22    15    21    1
