@<TRIPOS>MOLECULE
*****
 32 33 0 0 0
SMALL
GASTEIGER

@<TRIPOS>ATOM
      1 O           2.4650    2.8782   -0.9358 O.2     1  UNL1       -0.2449
      2 C           1.6585    1.9865   -0.6913 C.ar    1  UNL1        0.3412
      3 O           0.5036    2.2489    0.0209 O.2     1  UNL1       -0.4219
      4 C          -0.4493    1.2490    0.2641 C.ar    1  UNL1        0.1412
      5 C          -0.2537   -0.0583   -0.1708 C.ar    1  UNL1        0.0228
      6 C          -1.2569   -0.9859    0.1342 C.ar    1  UNL1       -0.0216
      7 C          -2.4089   -0.5881    0.8364 C.ar    1  UNL1        0.1381
      8 S          -3.5920   -1.8200    1.3188 S.O2    1  UNL1        0.1114
      9 O          -3.0879   -3.1206    0.9368 O.2     1  UNL1       -0.1420
     10 O          -3.5679   -1.7256    2.9333 O.3     1  UNL1       -0.2497
     11 O          -4.8884   -1.3406    0.8844 O.2     1  UNL1       -0.1420
     12 C          -2.6231    0.7453    1.2129 C.ar    1  UNL1        0.0557
     13 N          -3.7326    1.1513    1.9832 N.pl3   1  UNL1       -0.3563
     14 C          -1.5940    1.6528    0.9634 C.ar    1  UNL1        0.0040
     15 C           0.9868   -0.3954   -0.8991 C.ar    1  UNL1       -0.0293
     16 C           1.1870   -1.8388   -1.2892 C.3     1  UNL1       -0.0385
     17 C           1.8783    0.5874   -1.1565 C.ar    1  UNL1        0.0511
     18 C           3.1789    0.4305   -1.9119 C.3     1  UNL1        0.0769
     19 C           4.3447    0.4125   -0.9491 C.2     1  UNL1        0.3093
     20 O           5.5256    0.5745   -1.5809 O.3     1  UNL1       -0.4804
     21 O           4.3106    0.2267    0.2563 O.2     1  UNL1       -0.2506
     22 H          -1.1534   -2.0315   -0.1478 H       1  UNL1        0.0645
     23 H          -3.7329   -0.7910    3.1956 H       1  UNL1        0.2449
     24 H          -4.6093    0.7415    1.6339 H       1  UNL1        0.1424
     25 H          -3.8398    2.1667    2.0095 H       1  UNL1        0.1424
     26 H          -1.6712    2.6867    1.2909 H       1  UNL1        0.0673
     27 H           1.1070   -2.4906   -0.4119 H       1  UNL1        0.0278
     28 H           2.1682   -2.0464   -1.7201 H       1  UNL1        0.0278
     29 H           0.4378   -2.1443   -2.0278 H       1  UNL1        0.0278
     30 H           3.3073    1.2622   -2.6152 H       1  UNL1        0.0429
     31 H           3.2148   -0.4825   -2.5104 H       1  UNL1        0.0429
     32 H           6.1869    0.5634   -0.8569 H       1  UNL1        0.2951
@<TRIPOS>BOND
     1     1     2    2
     2     2     3   ar
     3     3     4   ar
     4     4     5   ar
     5     5     6   ar
     6     6     7   ar
     7     7     8    1
     8     8     9    2
     9     8    10    1
    10     8    11    2
    11     7    12   ar
    12    12    13    1
    13    12    14   ar
    14     5    15   ar
    15    15    16    1
    16    15    17   ar
    17    17    18    1
    18    18    19    1
    19    19    20    1
    20    19    21    2
    21    17     2   ar
    22    14     4   ar
    23     6    22    1
    24    10    23    1
    25    13    24    1
    26    13    25    1
    27    14    26    1
    28    16    27    1
    29    16    28    1
    30    16    29    1
    31    18    30    1
    32    18    31    1
    33    20    32    1
