@<TRIPOS>MOLECULE
*****
 43 46 0 0 0
SMALL
GASTEIGER

@<TRIPOS>ATOM
      1 O           1.7510    0.6188   -3.0617 O.2     1  UNL1       -0.2444
      2 C           1.2280    0.4398   -1.9667 C.ar    1  UNL1        0.3471
      3 O          -0.1607    0.4664   -1.8420 O.2     1  UNL1       -0.4216
      4 C          -0.7983    0.3559   -0.5928 C.ar    1  UNL1        0.1408
      5 C          -0.0570    0.1854    0.5623 C.ar    1  UNL1        0.0184
      6 C          -0.7375    0.0832    1.7680 C.ar    1  UNL1       -0.0493
      7 C          -2.1414    0.1480    1.7916 C.ar    1  UNL1       -0.0399
      8 C          -2.9153    0.3236    0.6278 C.ar    1  UNL1        0.0332
      9 N          -4.3042    0.3912    0.6659 N.pl3   1  UNL1       -0.3303
     10 C          -5.0802   -0.0766    1.8233 C.3     1  UNL1        0.0093
     11 C          -5.0671   -1.5955    1.9321 C.3     1  UNL1       -0.0494
     12 C          -5.0716    0.9576   -0.4531 C.3     1  UNL1        0.0093
     13 C          -5.5694   -0.1301   -1.3925 C.3     1  UNL1       -0.0494
     14 C          -2.1945    0.4272   -0.5730 C.ar    1  UNL1        0.0024
     15 C           1.3896    0.1117    0.4689 C.ar    1  UNL1       -0.0345
     16 C           2.0070    0.2014   -0.7216 C.ar    1  UNL1        0.0921
     17 C           3.4345    0.1148   -0.7453 C.ar    1  UNL1        0.1163
     18 N           4.2460    0.6603    0.1458 N.ar    1  UNL1       -0.2388
     19 C           5.5685    0.3643   -0.1365 C.ar    1  UNL1        0.0789
     20 C           6.6882    0.8106    0.5936 C.ar    1  UNL1       -0.0352
     21 C           7.9742    0.4290    0.1974 C.ar    1  UNL1       -0.0597
     22 C           8.1547   -0.3895   -0.9129 C.ar    1  UNL1       -0.0606
     23 C           7.0592   -0.8454   -1.6522 C.ar    1  UNL1       -0.0459
     24 C           5.7727   -0.4565   -1.2429 C.ar    1  UNL1        0.0395
     25 S           4.2496   -0.8601   -1.9244 S.2     1  UNL1       -0.0670
     26 H          -0.2001   -0.0434    2.7040 H       1  UNL1        0.0625
     27 H          -2.6157    0.0722    2.7658 H       1  UNL1        0.0636
     28 H          -6.1261    0.2415    1.7279 H       1  UNL1        0.0461
     29 H          -4.7271    0.3853    2.7521 H       1  UNL1        0.0461
     30 H          -4.0601   -1.9833    2.1085 H       1  UNL1        0.0245
     31 H          -5.4485   -2.0613    1.0174 H       1  UNL1        0.0245
     32 H          -5.7001   -1.9181    2.7651 H       1  UNL1        0.0245
     33 H          -5.9360    1.5115   -0.0643 H       1  UNL1        0.0461
     34 H          -4.4907    1.7060   -1.0054 H       1  UNL1        0.0461
     35 H          -4.7494   -0.7466   -1.7708 H       1  UNL1        0.0245
     36 H          -6.0844    0.3159   -2.2489 H       1  UNL1        0.0245
     37 H          -6.2784   -0.7923   -0.8859 H       1  UNL1        0.0245
     38 H          -2.7003    0.5449   -1.5253 H       1  UNL1        0.0673
     39 H           1.9512   -0.0318    1.3881 H       1  UNL1        0.0633
     40 H           6.5425    1.4505    1.4583 H       1  UNL1        0.0639
     41 H           8.8363    0.7774    0.7612 H       1  UNL1        0.0618
     42 H           9.1604   -0.6793   -1.2114 H       1  UNL1        0.0618
     43 H           7.2004   -1.4845   -2.5187 H       1  UNL1        0.0629
@<TRIPOS>BOND
     1     1     2    2
     2     2     3   ar
     3     3     4   ar
     4     4     5   ar
     5     5     6   ar
     6     6     7   ar
     7     7     8   ar
     8     8     9    1
     9     9    10    1
    10    10    11    1
    11     9    12    1
    12    12    13    1
    13     8    14   ar
    14     5    15   ar
    15    15    16   ar
    16    16    17    1
    17    17    18   ar
    18    18    19   ar
    19    19    20   ar
    20    20    21   ar
    21    21    22   ar
    22    22    23   ar
    23    23    24   ar
    24    24    25   ar
    25    16     2   ar
    26    14     4   ar
    27    25    17   ar
    28    24    19   ar
    29     6    26    1
    30     7    27    1
    31    10    28    1
    32    10    29    1
    33    11    30    1
    34    11    31    1
    35    11    32    1
    36    12    33    1
    37    12    34    1
    38    13    35    1
    39    13    36    1
    40    13    37    1
    41    14    38    1
    42    15    39    1
    43    20    40    1
    44    21    41    1
    45    22    42    1
    46    23    43    1
