@<TRIPOS>MOLECULE
*****
 27 28 0 0 0
SMALL
GASTEIGER

@<TRIPOS>ATOM
      1 O          -1.5146    3.7310   -0.3252 O.2     1  UNL1       -0.2452
      2 C          -1.1017    2.5813   -0.2285 C.ar    1  UNL1        0.3375
      3 O           0.2447    2.2758   -0.2608 O.2     1  UNL1       -0.4220
      4 C           0.6904    0.9499   -0.1023 C.ar    1  UNL1        0.1428
      5 C          -0.2069   -0.1074    0.0653 C.ar    1  UNL1        0.0215
      6 C           0.3405   -1.3845    0.2366 C.ar    1  UNL1       -0.0474
      7 C           1.7289   -1.5777    0.2273 C.ar    1  UNL1       -0.0192
      8 C           2.6041   -0.5047    0.0500 C.ar    1  UNL1        0.1236
      9 O           3.9294   -0.8374    0.0616 O.3     1  UNL1       -0.4950
     10 C           4.8598    0.2230   -0.1233 C.3     1  UNL1        0.0788
     11 C           2.0787    0.7716   -0.1148 C.ar    1  UNL1        0.0231
     12 C          -1.6587    0.1711    0.0590 C.ar    1  UNL1       -0.0194
     13 C          -2.6134   -0.9958    0.2163 C.3     1  UNL1        0.0708
     14 C          -4.0958   -0.7428   -0.0089 C.2     1  UNL1        0.3091
     15 O          -4.8679   -1.5523    0.7463 O.3     1  UNL1       -0.4804
     16 O          -4.6115    0.0295   -0.7986 O.2     1  UNL1       -0.2507
     17 C          -2.0356    1.4543   -0.0704 C.ar    1  UNL1        0.0273
     18 H          -0.2851   -2.2603    0.3843 H       1  UNL1        0.0626
     19 H           2.1317   -2.5798    0.3610 H       1  UNL1        0.0654
     20 H           4.7868    0.9571    0.6859 H       1  UNL1        0.0660
     21 H           4.7283    0.6973   -1.1015 H       1  UNL1        0.0660
     22 H           5.8659   -0.2064   -0.0937 H       1  UNL1        0.0660
     23 H           2.7096    1.6428   -0.2510 H       1  UNL1        0.0691
     24 H          -2.3528   -1.7895   -0.4949 H       1  UNL1        0.0426
     25 H          -2.4957   -1.3930    1.2329 H       1  UNL1        0.0426
     26 H          -5.7853   -1.3193    0.4883 H       1  UNL1        0.2951
     27 H          -3.0740    1.7663   -0.0716 H       1  UNL1        0.0692
@<TRIPOS>BOND
     1     1     2    2
     2     2     3   ar
     3     3     4   ar
     4     4     5   ar
     5     5     6   ar
     6     6     7   ar
     7     7     8   ar
     8     8     9    1
     9     9    10    1
    10     8    11   ar
    11     5    12   ar
    12    12    13    1
    13    13    14    1
    14    14    15    1
    15    14    16    2
    16    12    17   ar
    17    17     2   ar
    18    11     4   ar
    19     6    18    1
    20     7    19    1
    21    10    20    1
    22    10    21    1
    23    10    22    1
    24    11    23    1
    25    13    24    1
    26    13    25    1
    27    15    26    1
    28    17    27    1
