@<TRIPOS>MOLECULE
*****
 32 35 0 0 0
SMALL
GASTEIGER

@<TRIPOS>ATOM
      1 O           1.5382   -3.2313    1.4000 O.2     1  UNL1       -0.2443
      2 C           2.0234   -2.1741    1.0140 C.ar    1  UNL1        0.3498
      3 O           3.4062   -1.9957    1.0156 O.2     1  UNL1       -0.4216
      4 C           4.0040   -0.8002    0.5817 C.ar    1  UNL1        0.1391
      5 C           5.3937   -0.7221    0.6226 C.ar    1  UNL1       -0.0186
      6 C           6.0181    0.4494    0.1993 C.ar    1  UNL1       -0.0582
      7 C           5.2505    1.5235   -0.2574 C.ar    1  UNL1       -0.0610
      8 C           3.8554    1.4295   -0.2924 C.ar    1  UNL1       -0.0511
      9 C           3.2242    0.2579    0.1305 C.ar    1  UNL1        0.0183
     10 C           1.7793    0.1061    0.1154 C.ar    1  UNL1       -0.0318
     11 C           1.2024   -1.0352    0.5294 C.ar    1  UNL1        0.1243
     12 C          -0.2219   -1.1458    0.4993 C.ar    1  UNL1        0.2657
     13 N          -1.0712   -0.2108    0.0923 N.ar    1  UNL1       -0.1868
     14 C          -2.3147   -0.7805    0.2500 C.ar    1  UNL1        0.2024
     15 C          -3.5466   -0.0754   -0.0872 C.ar    1  UNL1        0.0225
     16 C          -3.4974    1.2326   -0.5929 C.ar    1  UNL1       -0.0509
     17 C          -4.6722    1.9158   -0.9187 C.ar    1  UNL1       -0.0611
     18 C          -5.9091    1.2992   -0.7425 C.ar    1  UNL1       -0.0617
     19 C          -5.9739    0.0007   -0.2413 C.ar    1  UNL1       -0.0611
     20 C          -4.7996   -0.6834    0.0848 C.ar    1  UNL1       -0.0509
     21 N          -2.2694   -2.0256    0.7363 N.ar    1  UNL1       -0.0557
     22 O          -0.9150   -2.2708    0.9010 O.2     1  UNL1       -0.3322
     23 H           5.9824   -1.5623    0.9793 H       1  UNL1        0.0654
     24 H           7.1024    0.5275    0.2246 H       1  UNL1        0.0619
     25 H           5.7406    2.4369   -0.5872 H       1  UNL1        0.0618
     26 H           3.2762    2.2769   -0.6514 H       1  UNL1        0.0625
     27 H           1.1895    0.9466   -0.2415 H       1  UNL1        0.0634
     28 H          -2.5407    1.7305   -0.7374 H       1  UNL1        0.0625
     29 H          -4.6202    2.9288   -1.3097 H       1  UNL1        0.0618
     30 H          -6.8232    1.8303   -0.9959 H       1  UNL1        0.0618
     31 H          -6.9381   -0.4822   -0.1031 H       1  UNL1        0.0618
     32 H          -4.8736   -1.6970    0.4749 H       1  UNL1        0.0625
@<TRIPOS>BOND
     1     1     2    2
     2     2     3   ar
     3     3     4   ar
     4     4     5   ar
     5     5     6   ar
     6     6     7   ar
     7     7     8   ar
     8     8     9   ar
     9     9    10   ar
    10    10    11   ar
    11    11    12    1
    12    12    13   ar
    13    13    14   ar
    14    14    15    1
    15    15    16   ar
    16    16    17   ar
    17    17    18   ar
    18    18    19   ar
    19    19    20   ar
    20    14    21   ar
    21    21    22   ar
    22    11     2   ar
    23    22    12   ar
    24     9     4   ar
    25    20    15   ar
    26     5    23    1
    27     6    24    1
    28     7    25    1
    29     8    26    1
    30    10    27    1
    31    16    28    1
    32    17    29    1
    33    18    30    1
    34    19    31    1
    35    20    32    1
