@<TRIPOS>MOLECULE
*****
 45 51 0 0 0
SMALL
GASTEIGER

@<TRIPOS>ATOM
      1 SI          4.8657   -1.8772    0.9291 Si      1  UNL1        0.0000
      2 C           3.1415   -1.1546    1.0892 C.ar    1  UNL1        0.0000
      3 C           1.9188   -1.3634    1.7147 C.ar    1  UNL1        0.0000
      4 C           1.1003   -0.3184    1.2910 C.ar    1  UNL1        0.0000
      5 N           1.8327    0.5091    0.4515 N.ar    1  UNL1        0.0000
      6 C           3.0806   -0.0146    0.3189 C.ar    1  UNL1        0.0000
      7 C           4.2412    0.4118   -0.4282 C.ar    1  UNL1        0.0000
      8 N           4.2158    1.5124   -1.1901 N.ar    1  UNL1        0.0000
      9 C           5.3841    1.7711   -1.8241 C.ar    1  UNL1        0.0000
     10 C           6.5385    0.9857   -1.7224 C.ar    1  UNL1        0.0000
     11 C           6.5241   -0.1555   -0.9184 C.ar    1  UNL1        0.0000
     12 C           5.3463   -0.4481   -0.2562 C.ar    1  UNL1        0.0000
     13 C          -0.2599   -0.0237    1.6399 C.ar    1  UNL1        0.0000
     14 S          -0.5376    0.4949    3.2595 S.2     1  UNL1        0.0000
     15 C          -2.1796    0.8229    2.9539 C.ar    1  UNL1        0.0000
     16 C          -2.5378    0.5190    1.6606 C.ar    1  UNL1        0.0000
     17 C          -1.4329   -0.0310    0.8935 C.ar    1  UNL1        0.0000
     18 C          -1.5824   -0.4739   -0.4669 C.ar    1  UNL1        0.0000
     19 C          -0.5856   -1.1019   -1.2661 C.ar    1  UNL1        0.0000
     20 C          -0.8329   -1.4700   -2.5830 C.ar    1  UNL1        0.0000
     21 C          -2.0797   -1.2337   -3.1276 C.ar    1  UNL1        0.0000
     22 C          -3.0842   -0.6470   -2.3488 C.ar    1  UNL1        0.0000
     23 C          -2.9047   -0.2526   -0.9974 C.ar    1  UNL1        0.0000
     24 C          -4.0063    0.3298   -0.2074 C.ar    1  UNL1        0.0000
     25 C          -5.3097    0.5395   -0.7313 C.ar    1  UNL1        0.0000
     26 C          -6.3689    1.0798    0.0128 C.ar    1  UNL1        0.0000
     27 C          -6.1795    1.4426    1.3348 C.ar    1  UNL1        0.0000
     28 C          -4.9295    1.2676    1.9122 C.ar    1  UNL1        0.0000
     29 C          -3.8518    0.7215    1.1606 C.ar    1  UNL1        0.0000
     30 H           4.9121   -3.1867    0.2281 H       1  UNL1        0.0000
     31 H           5.6683   -1.8269    2.1786 H       1  UNL1        0.0000
     32 H           1.6288   -2.1582    2.3901 H       1  UNL1        0.0000
     33 H           1.4978    1.3523    0.0028 H       1  UNL1        0.0000
     34 H           5.3792    2.6627   -2.4459 H       1  UNL1        0.0000
     35 H           7.4346    1.2671   -2.2665 H       1  UNL1        0.0000
     36 H           7.4068   -0.7792   -0.8243 H       1  UNL1        0.0000
     37 H          -2.7794    1.2238    3.7572 H       1  UNL1        0.0000
     38 H           0.3934   -1.3412   -0.8698 H       1  UNL1        0.0000
     39 H          -0.0534   -1.9439   -3.1730 H       1  UNL1        0.0000
     40 H          -2.2873   -1.5153   -4.1568 H       1  UNL1        0.0000
     41 H          -4.0387   -0.5115   -2.8487 H       1  UNL1        0.0000
     42 H          -5.5467    0.2802   -1.7591 H       1  UNL1        0.0000
     43 H          -7.3424    1.2118   -0.4531 H       1  UNL1        0.0000
     44 H          -6.9983    1.8608    1.9133 H       1  UNL1        0.0000
     45 H          -4.8011    1.5622    2.9491 H       1  UNL1        0.0000
@<TRIPOS>BOND
     1     1     2    1
     2     2     3   ar
     3     3     4   ar
     4     4     5   ar
     5     5     6   ar
     6     6     7    1
     7     7     8   ar
     8     8     9   ar
     9     9    10   ar
    10    10    11   ar
    11    11    12   ar
    12     4    13    1
    13    13    14   ar
    14    14    15   ar
    15    15    16   ar
    16    16    17   ar
    17    17    18   ar
    18    18    19   ar
    19    19    20   ar
    20    20    21   ar
    21    21    22   ar
    22    22    23   ar
    23    23    24   ar
    24    24    25   ar
    25    25    26   ar
    26    26    27   ar
    27    27    28   ar
    28    28    29   ar
    29    12     1    1
    30    17    13   ar
    31    23    18   ar
    32    29    24   ar
    33     6     2   ar
    34    12     7   ar
    35    29    16   ar
    36     1    30    1
    37     1    31    1
    38     3    32    1
    39     5    33    1
    40     9    34    1
    41    10    35    1
    42    11    36    1
    43    15    37    1
    44    19    38    1
    45    20    39    1
    46    21    40    1
    47    22    41    1
    48    25    42    1
    49    26    43    1
    50    27    44    1
    51    28    45    1
