@<TRIPOS>MOLECULE
*****
 29 31 0 0 0
SMALL
GASTEIGER

@<TRIPOS>ATOM
      1 O          -2.4414    0.7640   -1.3158 O.2     1  UNL1       -0.2496
      2 C          -3.1532    0.5346   -0.3504 C.2     1  UNL1        0.3207
      3 O          -3.8896    1.4913    0.2941 O.3     1  UNL1       -0.4638
      4 C          -4.5756    0.8948    1.3936 C.3     1  UNL1        0.0940
      5 C          -4.6555   -0.5727    1.0561 C.3     1  UNL1        0.0040
      6 C          -3.3732   -0.8162    0.2849 C.3     1  UNL1        0.1117
      7 S          -2.0142   -1.2636    1.4024 S.3     1  UNL1       -0.0840
      8 C          -0.6549   -1.3106    0.3019 C.ar    1  UNL1        0.1360
      9 N           0.4049   -0.5759    0.5411 N.ar    1  UNL1       -0.2327
     10 C           1.3524   -0.7664   -0.4566 C.ar    1  UNL1        0.0794
     11 C           2.6220   -0.0419   -0.4340 C.ar    1  UNL1        0.0009
     12 C           3.0494    0.5577    0.7606 C.ar    1  UNL1       -0.0525
     13 C           4.2583    1.2559    0.8216 C.ar    1  UNL1       -0.0611
     14 C           5.0553    1.3680   -0.3144 C.ar    1  UNL1       -0.0617
     15 C           4.6422    0.7865   -1.5109 C.ar    1  UNL1       -0.0611
     16 C           3.4323    0.0872   -1.5720 C.ar    1  UNL1       -0.0525
     17 C           0.9933   -1.6966   -1.4148 C.ar    1  UNL1        0.0041
     18 S          -0.5636   -2.3305   -1.0699 S.2     1  UNL1       -0.0688
     19 H          -4.0091    1.0882    2.3105 H       1  UNL1        0.0698
     20 H          -5.5686    1.3430    1.4927 H       1  UNL1        0.0698
     21 H          -5.5081   -0.7335    0.3829 H       1  UNL1        0.0314
     22 H          -4.8097   -1.2115    1.9310 H       1  UNL1        0.0314
     23 H          -3.5347   -1.5831   -0.4779 H       1  UNL1        0.0532
     24 H           2.4370    0.4835    1.6578 H       1  UNL1        0.0624
     25 H           4.5719    1.7130    1.7564 H       1  UNL1        0.0618
     26 H           5.9942    1.9136   -0.2688 H       1  UNL1        0.0618
     27 H           5.2586    0.8820   -2.4013 H       1  UNL1        0.0618
     28 H           3.1336   -0.3365   -2.5265 H       1  UNL1        0.0624
     29 H           1.5460   -2.0450   -2.2743 H       1  UNL1        0.0716
@<TRIPOS>BOND
     1     1     2    2
     2     2     3    1
     3     3     4    1
     4     4     5    1
     5     5     6    1
     6     6     7    1
     7     7     8    1
     8     8     9   ar
     9     9    10   ar
    10    10    11    1
    11    11    12   ar
    12    12    13   ar
    13    13    14   ar
    14    14    15   ar
    15    15    16   ar
    16    10    17   ar
    17    17    18   ar
    18     6     2    1
    19    18     8   ar
    20    16    11   ar
    21     4    19    1
    22     4    20    1
    23     5    21    1
    24     5    22    1
    25     6    23    1
    26    12    24    1
    27    13    25    1
    28    14    26    1
    29    15    27    1
    30    16    28    1
    31    17    29    1
