@<TRIPOS>MOLECULE
*****
 25 27 0 0 0
SMALL
GASTEIGER

@<TRIPOS>ATOM
      1 O           4.9682    1.8140    0.1522 O.2     1  UNL1       -0.2957
      2 C           4.4873    0.8068   -0.3513 C.2     1  UNL1        0.1502
      3 C           3.0591    0.4603   -0.2061 C.ar    1  UNL1        0.0142
      4 C           2.1965    1.3113    0.4878 C.ar    1  UNL1       -0.0509
      5 C           0.8461    0.9763    0.6186 C.ar    1  UNL1       -0.0519
      6 C           2.5792   -0.7236   -0.7705 C.ar    1  UNL1       -0.0509
      7 C           1.2278   -1.0569   -0.6349 C.ar    1  UNL1       -0.0519
      8 C           0.3494   -0.2111    0.0618 C.ar    1  UNL1        0.0006
      9 C          -1.0739   -0.5642    0.2110 C.ar    1  UNL1        0.0777
     10 C          -1.4077   -1.6922    0.8659 C.ar    1  UNL1       -0.0173
     11 C          -2.8641   -1.9682    0.9847 C.ar    1  UNL1        0.0335
     12 N          -3.8283   -1.2346    0.5254 N.ar    1  UNL1       -0.2190
     13 C          -3.4513   -0.0963   -0.1288 C.ar    1  UNL1        0.2533
     14 N          -4.2050    0.8240   -0.6893 N.ar    1  UNL1       -0.1974
     15 C          -3.3055    1.7143   -1.1832 C.ar    1  UNL1        0.1406
     16 N          -2.0225    1.4254   -0.9748 N.ar    1  UNL1       -0.1518
     17 N          -2.0999    0.2527   -0.2924 N.ar    1  UNL1       -0.1963
     18 H           5.1070    0.1068   -0.9364 H       1  UNL1        0.1081
     19 H           2.5685    2.2378    0.9214 H       1  UNL1        0.0625
     20 H           0.1861    1.6575    1.1535 H       1  UNL1        0.0624
     21 H           3.2402   -1.3900   -1.3189 H       1  UNL1        0.0625
     22 H           0.8648   -1.9761   -1.0908 H       1  UNL1        0.0624
     23 H          -0.7076   -2.3872    1.3096 H       1  UNL1        0.0654
     24 H          -3.1178   -2.8975    1.5226 H       1  UNL1        0.0831
     25 H          -3.5967    2.6105   -1.7166 H       1  UNL1        0.1066
@<TRIPOS>BOND
     1     1     2    2
     2     2     3    1
     3     3     4   ar
     4     4     5   ar
     5     3     6   ar
     6     6     7   ar
     7     7     8   ar
     8     8     9    1
     9     9    10   ar
    10    10    11   ar
    11    11    12   ar
    12    12    13   ar
    13    13    14   ar
    14    14    15   ar
    15    15    16   ar
    16    16    17   ar
    17     8     5   ar
    18    17     9   ar
    19    17    13   ar
    20     2    18    1
    21     4    19    1
    22     5    20    1
    23     6    21    1
    24     7    22    1
    25    10    23    1
    26    11    24    1
    27    15    25    1
