@<TRIPOS>MOLECULE
*****
 34 37 0 0 0
SMALL
GASTEIGER

@<TRIPOS>ATOM
      1 O          -1.6011    4.2806   -0.6844 O.2     1  UNL1       -0.2957
      2 C          -2.3895    3.3581   -0.5360 C.2     1  UNL1        0.1508
      3 C          -2.0243    1.9289   -0.3073 C.ar    1  UNL1        0.0222
      4 C          -0.6967    1.4337   -0.2292 C.ar    1  UNL1       -0.0065
      5 C           0.4566    2.2338   -0.3586 C.ar    1  UNL1       -0.0528
      6 C           1.7453    1.7029   -0.2748 C.ar    1  UNL1       -0.0531
      7 C          -0.5036    0.0420   -0.0063 C.ar    1  UNL1       -0.0016
      8 C           0.8212   -0.4955    0.0787 C.ar    1  UNL1       -0.0022
      9 C           1.9617    0.3373   -0.0560 C.ar    1  UNL1       -0.0138
     10 C           3.2639   -0.2237    0.0327 C.ar    1  UNL1       -0.0427
     11 C           4.5074    0.6171   -0.1033 C.3     1  UNL1       -0.0391
     12 C           3.4128   -1.5978    0.2529 C.ar    1  UNL1       -0.0577
     13 C           2.2969   -2.4164    0.3853 C.ar    1  UNL1       -0.0537
     14 C           1.0077   -1.8813    0.3007 C.ar    1  UNL1       -0.0167
     15 C          -0.1002   -2.7151    0.4355 C.ar    1  UNL1       -0.0534
     16 C          -1.3902   -2.1967    0.3536 C.ar    1  UNL1       -0.0532
     17 C          -1.6251   -0.8270    0.1342 C.ar    1  UNL1       -0.0138
     18 C          -2.9364   -0.3037    0.0515 C.ar    1  UNL1       -0.0420
     19 C          -4.1608   -1.1731    0.1920 C.3     1  UNL1       -0.0391
     20 C          -3.1183    1.0652   -0.1678 C.ar    1  UNL1       -0.0475
     21 H          -3.4728    3.5668   -0.5687 H       1  UNL1        0.1082
     22 H           0.3866    3.3049   -0.5303 H       1  UNL1        0.0624
     23 H           2.5786    2.3928   -0.3862 H       1  UNL1        0.0624
     24 H           5.4158    0.0126   -0.0070 H       1  UNL1        0.0278
     25 H           4.5389    1.3800    0.6812 H       1  UNL1        0.0278
     26 H           4.5374    1.0961   -1.0873 H       1  UNL1        0.0278
     27 H           4.4031   -2.0425    0.3233 H       1  UNL1        0.0621
     28 H           2.4459   -3.4804    0.5558 H       1  UNL1        0.0624
     29 H           0.0256   -3.7821    0.6064 H       1  UNL1        0.0624
     30 H          -2.2152   -2.8962    0.4665 H       1  UNL1        0.0624
     31 H          -4.1785   -1.9360   -0.5930 H       1  UNL1        0.0278
     32 H          -4.1768   -1.6525    1.1761 H       1  UNL1        0.0278
     33 H          -5.0837   -0.5903    0.0995 H       1  UNL1        0.0278
     34 H          -4.1320    1.4577   -0.2297 H       1  UNL1        0.0627
@<TRIPOS>BOND
     1     1     2    2
     2     2     3    1
     3     3     4   ar
     4     4     5   ar
     5     5     6   ar
     6     4     7   ar
     7     7     8   ar
     8     8     9   ar
     9     9    10   ar
    10    10    11    1
    11    10    12   ar
    12    12    13   ar
    13    13    14   ar
    14    14    15   ar
    15    15    16   ar
    16    16    17   ar
    17    17    18   ar
    18    18    19    1
    19    18    20   ar
    20    20     3   ar
    21     9     6   ar
    22    17     7   ar
    23    14     8   ar
    24     2    21    1
    25     5    22    1
    26     6    23    1
    27    11    24    1
    28    11    25    1
    29    11    26    1
    30    12    27    1
    31    13    28    1
    32    15    29    1
    33    16    30    1
    34    19    31    1
    35    19    32    1
    36    19    33    1
    37    20    34    1
