@<TRIPOS>MOLECULE
*****
 28 31 0 0 0
SMALL
GASTEIGER

@<TRIPOS>ATOM
      1 O           5.0169    0.5984    0.7171 O.2     1  UNL1       -0.2957
      2 C           4.0179   -0.0900    0.5333 C.2     1  UNL1        0.1508
      3 C           2.6636    0.5023    0.3940 C.ar    1  UNL1        0.0219
      4 C           1.5017   -0.2896    0.1809 C.ar    1  UNL1       -0.0065
      5 C           0.2539    0.3816    0.0616 C.ar    1  UNL1       -0.0018
      6 C          -0.9468   -0.3505   -0.1524 C.ar    1  UNL1       -0.0025
      7 C           1.4911   -1.7013    0.0778 C.ar    1  UNL1       -0.0528
      8 C           0.3100   -2.4189   -0.1325 C.ar    1  UNL1       -0.0534
      9 C          -0.9137   -1.7590   -0.2494 C.ar    1  UNL1       -0.0167
     10 C          -2.1034   -2.4719   -0.4605 C.ar    1  UNL1       -0.0540
     11 C          -3.3200   -1.8033   -0.5759 C.ar    1  UNL1       -0.0606
     12 C          -3.3614   -0.4141   -0.4814 C.ar    1  UNL1       -0.0540
     13 C          -2.1871    0.3232   -0.2706 C.ar    1  UNL1       -0.0167
     14 C          -2.2222    1.7176   -0.1749 C.ar    1  UNL1       -0.0534
     15 C          -1.0508    2.4444    0.0348 C.ar    1  UNL1       -0.0534
     16 C           0.1844    1.7958    0.1541 C.ar    1  UNL1       -0.0167
     17 C           1.3494    2.5377    0.3640 C.ar    1  UNL1       -0.0533
     18 C           2.5785    1.8983    0.4831 C.ar    1  UNL1       -0.0504
     19 H           4.1155   -1.1819    0.4678 H       1  UNL1        0.1082
     20 H           2.4031   -2.2856    0.1583 H       1  UNL1        0.0624
     21 H           0.3600   -3.5037   -0.2039 H       1  UNL1        0.0624
     22 H          -2.0911   -3.5570   -0.5370 H       1  UNL1        0.0624
     23 H          -4.2362   -2.3648   -0.7393 H       1  UNL1        0.0618
     24 H          -4.3208    0.0905   -0.5739 H       1  UNL1        0.0624
     25 H          -3.1644    2.2543   -0.2628 H       1  UNL1        0.0624
     26 H          -1.1150    3.5285    0.1042 H       1  UNL1        0.0624
     27 H           1.3132    3.6228    0.4372 H       1  UNL1        0.0624
     28 H           3.4738    2.4964    0.6464 H       1  UNL1        0.0625
@<TRIPOS>BOND
     1     1     2    2
     2     2     3    1
     3     3     4   ar
     4     4     5   ar
     5     5     6   ar
     6     4     7   ar
     7     7     8   ar
     8     8     9   ar
     9     9    10   ar
    10    10    11   ar
    11    11    12   ar
    12    12    13   ar
    13    13    14   ar
    14    14    15   ar
    15    15    16   ar
    16    16    17   ar
    17    17    18   ar
    18    18     3   ar
    19    16     5   ar
    20    13     6   ar
    21     9     6   ar
    22     2    19    1
    23     7    20    1
    24     8    21    1
    25    10    22    1
    26    11    23    1
    27    12    24    1
    28    14    25    1
    29    15    26    1
    30    17    27    1
    31    18    28    1
