@<TRIPOS>MOLECULE
*****
 35 37 0 0 0
SMALL
GASTEIGER

@<TRIPOS>ATOM
      1 O          -1.4785   -0.4090    3.5283 O.2     1  UNL1       -0.2957
      2 C          -0.6648   -0.1062    2.6629 C.2     1  UNL1        0.1511
      3 C          -1.0036   -0.0286    1.2189 C.ar    1  UNL1        0.0254
      4 C           0.0130   -0.0984    0.2166 C.ar    1  UNL1       -0.0057
      5 C           1.4026   -0.2675    0.4723 C.ar    1  UNL1       -0.0323
      6 C           2.3832   -0.3374   -0.5373 C.ar    1  UNL1        0.0298
      7 N           3.7338   -0.4992   -0.1806 N.pl3   1  UNL1       -0.3360
      8 C           4.7480   -0.1686   -1.1818 C.3     1  UNL1        0.0004
      9 C           4.0010   -1.7424    0.5531 C.3     1  UNL1        0.0004
     10 C           1.9446   -0.2142   -1.8558 C.ar    1  UNL1       -0.0401
     11 C           0.5884   -0.0626   -2.1572 C.ar    1  UNL1       -0.0523
     12 C          -0.3796   -0.0100   -1.1477 C.ar    1  UNL1       -0.0168
     13 C          -1.7307    0.1246   -1.5017 C.ar    1  UNL1       -0.0505
     14 C          -2.6906    0.1896   -0.5091 C.ar    1  UNL1       -0.0429
     15 C          -2.3389    0.1209    0.8400 C.ar    1  UNL1       -0.0334
     16 C          -3.5720    0.1957    1.6948 C.3     1  UNL1       -0.0265
     17 C          -4.6046    0.7565    0.7074 C.3     1  UNL1       -0.0450
     18 C          -4.1736    0.2886   -0.6849 C.3     1  UNL1       -0.0271
     19 H           0.3711    0.1235    2.9503 H       1  UNL1        0.1082
     20 H           1.7594   -0.3282    1.4961 H       1  UNL1        0.0642
     21 H           4.7799   -0.9136   -1.9846 H       1  UNL1        0.0428
     22 H           5.7383   -0.1390   -0.7134 H       1  UNL1        0.0428
     23 H           4.5745    0.8249   -1.6106 H       1  UNL1        0.0428
     24 H           3.7719   -2.6186   -0.0644 H       1  UNL1        0.0428
     25 H           3.4299   -1.8059    1.4848 H       1  UNL1        0.0428
     26 H           5.0589   -1.7960    0.8347 H       1  UNL1        0.0428
     27 H           2.6418   -0.2569   -2.6868 H       1  UNL1        0.0636
     28 H           0.2980    0.0113   -3.2036 H       1  UNL1        0.0624
     29 H          -2.0331    0.1761   -2.5447 H       1  UNL1        0.0626
     30 H          -3.4601    0.8708    2.5476 H       1  UNL1        0.0314
     31 H          -3.8566   -0.8052    2.0352 H       1  UNL1        0.0314
     32 H          -4.5762    1.8546    0.7430 H       1  UNL1        0.0272
     33 H          -5.6268    0.4534    0.9541 H       1  UNL1        0.0272
     34 H          -4.4578    1.0111   -1.4552 H       1  UNL1        0.0313
     35 H          -4.5912   -0.6956   -0.9206 H       1  UNL1        0.0313
@<TRIPOS>BOND
     1     1     2    2
     2     2     3    1
     3     3     4   ar
     4     4     5   ar
     5     5     6   ar
     6     6     7    1
     7     7     8    1
     8     7     9    1
     9     6    10   ar
    10    10    11   ar
    11    11    12   ar
    12    12    13   ar
    13    13    14   ar
    14    14    15   ar
    15    15    16    1
    16    16    17    1
    17    17    18    1
    18    15     3   ar
    19    12     4   ar
    20    18    14    1
    21     2    19    1
    22     5    20    1
    23     8    21    1
    24     8    22    1
    25     8    23    1
    26     9    24    1
    27     9    25    1
    28     9    26    1
    29    10    27    1
    30    11    28    1
    31    13    29    1
    32    16    30    1
    33    16    31    1
    34    17    32    1
    35    17    33    1
    36    18    34    1
    37    18    35    1
