@<TRIPOS>MOLECULE
*****
 48 50 0 0 0
SMALL
GASTEIGER

@<TRIPOS>ATOM
      1 O           3.0223   -3.3327    1.8434 O.2     1  UNL1       -0.2956
      2 C           1.9921   -2.6745    1.7261 C.2     1  UNL1        0.1528
      3 C           1.8511   -1.5244    0.8507 C.ar    1  UNL1        0.0474
      4 C           0.6657   -0.9631    0.3895 C.ar    1  UNL1        0.0611
      5 N           0.9790    0.2783   -0.1768 N.ar    1  UNL1       -0.3117
      6 C           0.0023    1.3014   -0.3143 C.ar    1  UNL1        0.0275
      7 C           0.4496    2.7231   -0.6018 C.3     1  UNL1       -0.0145
      8 C           0.3004    3.0884   -2.0756 C.3     1  UNL1       -0.0599
      9 C          -1.2944    0.9979   -0.0276 C.ar    1  UNL1       -0.0244
     10 C          -1.6698   -0.4315    0.1445 C.ar    1  UNL1       -0.0377
     11 C          -3.1269   -0.8056   -0.1259 C.3     1  UNL1       -0.0299
     12 C          -4.0037   -0.8199    1.1196 C.3     1  UNL1       -0.0612
     13 C          -0.7207   -1.3856    0.3837 C.ar    1  UNL1       -0.0196
     14 C          -1.1088   -2.8640    0.5136 C.3     1  UNL1       -0.0283
     15 C          -0.7506   -3.6617   -0.7341 C.3     1  UNL1       -0.0612
     16 C          -2.3657    2.0716    0.1228 C.3     1  UNL1       -0.0286
     17 C          -2.4501    2.5814    1.5590 C.3     1  UNL1       -0.0612
     18 C           2.3559    0.2848   -0.4435 C.ar    1  UNL1        0.0548
     19 C           2.9178   -0.7879    0.2577 C.ar    1  UNL1        0.0121
     20 C           4.3231   -0.9558    0.2572 C.ar    1  UNL1       -0.0379
     21 C           5.1256   -0.0875   -0.4806 C.ar    1  UNL1        0.0186
     22 BR          7.0010   -0.3298   -0.4938 Br      1  UNL1       -0.0503
     23 C           4.5608    0.9417   -1.2158 C.ar    1  UNL1       -0.0458
     24 C           3.1763    1.1408   -1.2083 C.ar    1  UNL1       -0.0362
     25 H           1.1164   -2.9243    2.3414 H       1  UNL1        0.1082
     26 H          -0.1234    3.4434   -0.0077 H       1  UNL1        0.0325
     27 H           1.4749    2.8958   -0.2623 H       1  UNL1        0.0325
     28 H           0.7363    4.0749   -2.2634 H       1  UNL1        0.0233
     29 H          -0.7530    3.1301   -2.3705 H       1  UNL1        0.0233
     30 H           0.7939    2.3663   -2.7326 H       1  UNL1        0.0233
     31 H          -3.5656   -0.1554   -0.8911 H       1  UNL1        0.0311
     32 H          -3.1861   -1.7900   -0.6048 H       1  UNL1        0.0311
     33 H          -3.5770   -1.4484    1.9076 H       1  UNL1        0.0233
     34 H          -4.1484    0.1830    1.5273 H       1  UNL1        0.0233
     35 H          -4.9938   -1.2174    0.8729 H       1  UNL1        0.0233
     36 H          -2.1720   -3.0030    0.7267 H       1  UNL1        0.0311
     37 H          -0.6227   -3.3104    1.3825 H       1  UNL1        0.0311
     38 H          -1.2565   -3.2612   -1.6188 H       1  UNL1        0.0233
     39 H          -1.0583   -4.7054   -0.6134 H       1  UNL1        0.0233
     40 H           0.3276   -3.6521   -0.9234 H       1  UNL1        0.0233
     41 H          -3.3553    1.7323   -0.1886 H       1  UNL1        0.0311
     42 H          -2.1712    2.9208   -0.5400 H       1  UNL1        0.0311
     43 H          -2.6563    1.7719    2.2656 H       1  UNL1        0.0233
     44 H          -1.5173    3.0634    1.8688 H       1  UNL1        0.0233
     45 H          -3.2527    3.3207    1.6479 H       1  UNL1        0.0233
     46 H           4.7699   -1.7780    0.8115 H       1  UNL1        0.0635
     47 H           5.1880    1.6075   -1.8039 H       1  UNL1        0.0629
     48 H           2.7701    1.9501   -1.8014 H       1  UNL1        0.0639
@<TRIPOS>BOND
     1     1     2    2
     2     2     3    1
     3     3     4   ar
     4     4     5   ar
     5     5     6   ar
     6     6     7    1
     7     7     8    1
     8     6     9   ar
     9     9    10   ar
    10    10    11    1
    11    11    12    1
    12    10    13   ar
    13    13    14    1
    14    14    15    1
    15     9    16    1
    16    16    17    1
    17     5    18   ar
    18    18    19   ar
    19    19    20   ar
    20    20    21   ar
    21    21    22    1
    22    21    23   ar
    23    23    24   ar
    24    19     3   ar
    25    13     4   ar
    26    24    18   ar
    27     2    25    1
    28     7    26    1
    29     7    27    1
    30     8    28    1
    31     8    29    1
    32     8    30    1
    33    11    31    1
    34    11    32    1
    35    12    33    1
    36    12    34    1
    37    12    35    1
    38    14    36    1
    39    14    37    1
    40    15    38    1
    41    15    39    1
    42    15    40    1
    43    16    41    1
    44    16    42    1
    45    17    43    1
    46    17    44    1
    47    17    45    1
    48    20    46    1
    49    23    47    1
    50    24    48    1
