@<TRIPOS>MOLECULE
*****
 48 50 0 0 0
SMALL
GASTEIGER

@<TRIPOS>ATOM
      1 O          -2.2187    4.4328    0.0578 O.2     1  UNL1       -0.2956
      2 C          -1.3419    3.5998   -0.1620 C.2     1  UNL1        0.1528
      3 C          -1.4711    2.1761    0.1059 C.ar    1  UNL1        0.0474
      4 C          -0.4641    1.2121    0.0914 C.ar    1  UNL1        0.0611
      5 N          -1.0775   -0.0461    0.2066 N.ar    1  UNL1       -0.3117
      6 C          -0.3959   -1.2493   -0.1262 C.ar    1  UNL1        0.0275
      7 C          -1.1882   -2.5330   -0.2998 C.3     1  UNL1       -0.0145
      8 C          -1.1285   -3.4293    0.9339 C.3     1  UNL1       -0.0599
      9 C           0.9332   -1.1904   -0.4127 C.ar    1  UNL1       -0.0244
     10 C           1.6590    0.0903   -0.1994 C.ar    1  UNL1       -0.0377
     11 C           3.1873    0.0197   -0.1617 C.3     1  UNL1       -0.0299
     12 C           3.7061   -0.4289    1.2019 C.3     1  UNL1       -0.0612
     13 C           0.9852    1.2652   -0.0126 C.ar    1  UNL1       -0.0196
     14 C           1.7634    2.5638    0.2260 C.3     1  UNL1       -0.0283
     15 C           2.1899    3.2491   -1.0697 C.3     1  UNL1       -0.0612
     16 C           1.7085   -2.3940   -0.9408 C.3     1  UNL1       -0.0286
     17 C           1.8601   -2.3506   -2.4580 C.3     1  UNL1       -0.0612
     18 C          -2.4028    0.1583    0.6226 C.ar    1  UNL1        0.0547
     19 C          -2.6784    1.5216    0.4878 C.ar    1  UNL1        0.0110
     20 C          -3.9881    1.9912    0.7510 C.ar    1  UNL1       -0.0519
     21 C          -4.9817    1.1149    1.1847 C.ar    1  UNL1       -0.0611
     22 C          -4.6868   -0.2246    1.3668 C.ar    1  UNL1       -0.0598
     23 C          -3.4064   -0.7168    1.0943 C.ar    1  UNL1       -0.0372
     24 H          -0.4003    3.9331   -0.6103 H       1  UNL1        0.1082
     25 H          -2.2246   -2.3260   -0.5810 H       1  UNL1        0.0325
     26 H          -0.8237   -3.1005   -1.1643 H       1  UNL1        0.0325
     27 H          -0.1220   -3.8302    1.0894 H       1  UNL1        0.0233
     28 H          -1.8077   -4.2793    0.8125 H       1  UNL1        0.0233
     29 H          -1.4084   -2.8959    1.8471 H       1  UNL1        0.0233
     30 H           3.5824   -0.6294   -0.9485 H       1  UNL1        0.0311
     31 H           3.6505    0.9819   -0.3921 H       1  UNL1        0.0311
     32 H           3.4105    0.2744    1.9874 H       1  UNL1        0.0233
     33 H           4.7999   -0.4761    1.1891 H       1  UNL1        0.0233
     34 H           3.3312   -1.4188    1.4791 H       1  UNL1        0.0233
     35 H           1.1582    3.2532    0.8252 H       1  UNL1        0.0311
     36 H           2.6423    2.3905    0.8574 H       1  UNL1        0.0311
     37 H           1.3515    3.3893   -1.7579 H       1  UNL1        0.0233
     38 H           2.9501    2.6718   -1.6040 H       1  UNL1        0.0233
     39 H           2.6171    4.2326   -0.8488 H       1  UNL1        0.0233
     40 H           2.6901   -2.4878   -0.4684 H       1  UNL1        0.0311
     41 H           1.2236   -3.3382   -0.6781 H       1  UNL1        0.0311
     42 H           0.8830   -2.3641   -2.9527 H       1  UNL1        0.0233
     43 H           2.3938   -1.4548   -2.7900 H       1  UNL1        0.0233
     44 H           2.4226   -3.2240   -2.8037 H       1  UNL1        0.0233
     45 H          -4.2232    3.0476    0.6395 H       1  UNL1        0.0624
     46 H          -5.9792    1.4909    1.3950 H       1  UNL1        0.0618
     47 H          -5.4575   -0.9032    1.7247 H       1  UNL1        0.0618
     48 H          -3.2224   -1.7688    1.2653 H       1  UNL1        0.0638
@<TRIPOS>BOND
     1     1     2    2
     2     2     3    1
     3     3     4   ar
     4     4     5   ar
     5     5     6   ar
     6     6     7    1
     7     7     8    1
     8     6     9   ar
     9     9    10   ar
    10    10    11    1
    11    11    12    1
    12    10    13   ar
    13    13    14    1
    14    14    15    1
    15     9    16    1
    16    16    17    1
    17     5    18   ar
    18    18    19   ar
    19    19    20   ar
    20    20    21   ar
    21    21    22   ar
    22    22    23   ar
    23    19     3   ar
    24    13     4   ar
    25    23    18   ar
    26     2    24    1
    27     7    25    1
    28     7    26    1
    29     8    27    1
    30     8    28    1
    31     8    29    1
    32    11    30    1
    33    11    31    1
    34    12    32    1
    35    12    33    1
    36    12    34    1
    37    14    35    1
    38    14    36    1
    39    15    37    1
    40    15    38    1
    41    15    39    1
    42    16    40    1
    43    16    41    1
    44    17    42    1
    45    17    43    1
    46    17    44    1
    47    20    45    1
    48    21    46    1
    49    22    47    1
    50    23    48    1
