@<TRIPOS>MOLECULE
*****
 40 42 0 0 0
SMALL
GASTEIGER

@<TRIPOS>ATOM
      1 O           7.5588    0.1766   -0.1166 O.2     1  UNL1       -0.2957
      2 C           6.6829    0.1147   -0.9702 C.2     1  UNL1        0.1502
      3 C           5.2484    0.2106   -0.6341 C.ar    1  UNL1        0.0142
      4 C           4.2983    0.1361   -1.6545 C.ar    1  UNL1       -0.0510
      5 C           2.9381    0.2270   -1.3415 C.ar    1  UNL1       -0.0539
      6 C           2.5188    0.3814   -0.0119 C.ar    1  UNL1       -0.0238
      7 C           1.1017    0.5116    0.3509 C.2     1  UNL1       -0.0402
      8 C           0.1102   -0.1969   -0.2152 C.2     1  UNL1        0.0025
      9 N          -1.2685   -0.1793    0.0372 N.pl3   1  UNL1       -0.2759
     10 C          -2.0591   -1.3264   -0.3357 C.ar    1  UNL1        0.0382
     11 C          -3.3653   -1.1714   -0.8350 C.ar    1  UNL1       -0.0400
     12 C          -4.1369   -2.2786   -1.1996 C.ar    1  UNL1       -0.0600
     13 C          -3.6178   -3.5637   -1.0697 C.ar    1  UNL1       -0.0616
     14 C          -2.3288   -3.7430   -0.5751 C.ar    1  UNL1       -0.0600
     15 C          -1.5570   -2.6351   -0.2121 C.ar    1  UNL1       -0.0400
     16 C          -1.8802    0.9790    0.6315 C.ar    1  UNL1        0.0382
     17 C          -2.8025    0.8381    1.6833 C.ar    1  UNL1       -0.0400
     18 C          -3.4077    1.9555    2.2640 C.ar    1  UNL1       -0.0600
     19 C          -3.1037    3.2329    1.7994 C.ar    1  UNL1       -0.0616
     20 C          -2.1969    3.3943    0.7543 C.ar    1  UNL1       -0.0600
     21 C          -1.5910    2.2764    0.1745 C.ar    1  UNL1       -0.0400
     22 C           3.4859    0.4711    0.9986 C.ar    1  UNL1       -0.0539
     23 C           4.8464    0.3802    0.6921 C.ar    1  UNL1       -0.0510
     24 H           6.9308   -0.0166   -2.0368 H       1  UNL1        0.1081
     25 H           4.5979    0.0142   -2.6921 H       1  UNL1        0.0625
     26 H           2.2103    0.1876   -2.1494 H       1  UNL1        0.0624
     27 H           0.8824    1.2064    1.1576 H       1  UNL1        0.0636
     28 H           0.3615   -0.9309   -0.9786 H       1  UNL1        0.0787
     29 H          -3.7883   -0.1776   -0.9623 H       1  UNL1        0.0636
     30 H          -5.1418   -2.1332   -1.5873 H       1  UNL1        0.0618
     31 H          -4.2182   -4.4248   -1.3515 H       1  UNL1        0.0618
     32 H          -1.9231   -4.7453   -0.4641 H       1  UNL1        0.0618
     33 H          -0.5644   -2.8068    0.1972 H       1  UNL1        0.0636
     34 H          -3.0418   -0.1512    2.0667 H       1  UNL1        0.0636
     35 H          -4.1137    1.8257    3.0799 H       1  UNL1        0.0618
     36 H          -3.5747    4.1024    2.2505 H       1  UNL1        0.0618
     37 H          -1.9628    4.3894    0.3854 H       1  UNL1        0.0618
     38 H          -0.9027    2.4218   -0.6542 H       1  UNL1        0.0636
     39 H           3.1882    0.6041    2.0370 H       1  UNL1        0.0624
     40 H           5.5862    0.4435    1.4876 H       1  UNL1        0.0625
@<TRIPOS>BOND
     1     1     2    2
     2     2     3    1
     3     3     4   ar
     4     4     5   ar
     5     5     6   ar
     6     6     7    1
     7     7     8    2
     8     8     9    1
     9     9    10    1
    10    10    11   ar
    11    11    12   ar
    12    12    13   ar
    13    13    14   ar
    14    14    15   ar
    15     9    16    1
    16    16    17   ar
    17    17    18   ar
    18    18    19   ar
    19    19    20   ar
    20    20    21   ar
    21     6    22   ar
    22    22    23   ar
    23    23     3   ar
    24    15    10   ar
    25    21    16   ar
    26     2    24    1
    27     4    25    1
    28     5    26    1
    29     7    27    1
    30     8    28    1
    31    11    29    1
    32    12    30    1
    33    13    31    1
    34    14    32    1
    35    15    33    1
    36    17    34    1
    37    18    35    1
    38    19    36    1
    39    20    37    1
    40    21    38    1
    41    22    39    1
    42    23    40    1
