@<TRIPOS>MOLECULE
*****
 34 37 0 0 0
SMALL
GASTEIGER

@<TRIPOS>ATOM
      1 O           4.2724   -2.4061   -3.1510 O.2     1  UNL1       -0.2924
      2 C           3.5444   -1.4617   -2.8553 C.2     1  UNL1        0.1851
      3 C           2.7162   -1.3964   -1.6824 C.ar    1  UNL1        0.1676
      4 C           2.5212   -2.2827   -0.6456 C.ar    1  UNL1       -0.0126
      5 C           1.5904   -1.6737    0.2297 C.ar    1  UNL1       -0.0136
      6 C           1.2503   -0.4492   -0.3221 C.ar    1  UNL1        0.1546
      7 O           1.9544   -0.2819   -1.4860 O.2     1  UNL1       -0.4507
      8 C           0.3641    0.5493    0.1910 C.ar    1  UNL1        0.1173
      9 C           0.6235    1.8767    0.4439 C.ar    1  UNL1        0.0311
     10 C           1.7999    2.5655    0.1427 C.ar    1  UNL1       -0.0504
     11 C           1.7475    3.9019    0.5883 C.ar    1  UNL1       -0.0610
     12 C           0.6302    4.4651    1.2762 C.ar    1  UNL1       -0.0597
     13 C          -0.5392    3.7373    1.5846 C.ar    1  UNL1       -0.0339
     14 C          -0.5135    2.4030    1.1445 C.ar    1  UNL1        0.0939
     15 N          -1.4294    1.4404    1.2961 N.ar    1  UNL1       -0.1657
     16 N          -0.9542    0.3596    0.6059 N.ar    1  UNL1       -0.2280
     17 C          -1.8370   -0.7469    0.3921 C.ar    1  UNL1        0.0662
     18 C          -1.6255   -1.6833   -0.6280 C.ar    1  UNL1       -0.0362
     19 C          -2.5163   -2.7474   -0.8047 C.ar    1  UNL1       -0.0598
     20 C          -3.6297   -2.8777    0.0223 C.ar    1  UNL1       -0.0616
     21 C          -3.8650   -1.9371    1.0212 C.ar    1  UNL1       -0.0598
     22 C          -2.9793   -0.8721    1.2016 C.ar    1  UNL1       -0.0362
     23 H           3.4922   -0.5772   -3.5128 H       1  UNL1        0.1114
     24 H           3.0019   -3.2462   -0.5385 H       1  UNL1        0.0656
     25 H           1.2101   -2.0780    1.1588 H       1  UNL1        0.0656
     26 H           2.6580    2.1508   -0.3684 H       1  UNL1        0.0625
     27 H           2.6106    4.5427    0.4027 H       1  UNL1        0.0618
     28 H           0.6867    5.5093    1.5847 H       1  UNL1        0.0618
     29 H          -1.3791    4.1618    2.1166 H       1  UNL1        0.0639
     30 H          -0.8087   -1.5955   -1.3367 H       1  UNL1        0.0639
     31 H          -2.3473   -3.4682   -1.6013 H       1  UNL1        0.0618
     32 H          -4.3214   -3.7039   -0.1209 H       1  UNL1        0.0618
     33 H          -4.7399   -2.0274    1.6602 H       1  UNL1        0.0618
     34 H          -3.1883   -0.1509    1.9904 H       1  UNL1        0.0639
@<TRIPOS>BOND
     1     1     2    2
     2     2     3    1
     3     3     4   ar
     4     4     5   ar
     5     5     6   ar
     6     6     7   ar
     7     6     8    1
     8     8     9   ar
     9     9    10   ar
    10    10    11   ar
    11    11    12   ar
    12    12    13   ar
    13     9    14   ar
    14    14    15   ar
    15    15    16   ar
    16    16    17    1
    17    17    18   ar
    18    18    19   ar
    19    19    20   ar
    20    20    21   ar
    21    21    22   ar
    22     7     3   ar
    23    16     8   ar
    24    14    13   ar
    25    22    17   ar
    26     2    23    1
    27     4    24    1
    28     5    25    1
    29    10    26    1
    30    11    27    1
    31    12    28    1
    32    13    29    1
    33    18    30    1
    34    19    31    1
    35    20    32    1
    36    21    33    1
    37    22    34    1
