@<TRIPOS>MOLECULE
*****
 33 36 0 0 0
SMALL
GASTEIGER

@<TRIPOS>ATOM
      1 O           3.4048   -2.2698    2.7209 O.2     1  UNL1       -0.2924
      2 C           3.7893   -1.9218    1.6071 C.2     1  UNL1        0.1851
      3 C           3.0734   -1.0890    0.6765 C.ar    1  UNL1        0.1676
      4 C           3.4130   -0.6205   -0.5764 C.ar    1  UNL1       -0.0126
      5 C           2.3137    0.1504   -1.0265 C.ar    1  UNL1       -0.0136
      6 C           1.3523    0.1034   -0.0329 C.ar    1  UNL1        0.1547
      7 O           1.8305   -0.6379    1.0121 O.2     1  UNL1       -0.4507
      8 C           0.0692    0.7274   -0.0078 C.ar    1  UNL1        0.1190
      9 C          -0.2523    2.0574    0.1127 C.ar    1  UNL1        0.0311
     10 C           0.6462    3.1203    0.2159 C.ar    1  UNL1       -0.0503
     11 C          -0.0239    4.3538    0.3445 C.ar    1  UNL1       -0.0610
     12 C          -1.4458    4.4852    0.3701 C.ar    1  UNL1       -0.0597
     13 C          -2.3293    3.3885    0.2721 C.ar    1  UNL1       -0.0339
     14 C          -1.6852    2.1460    0.1425 C.ar    1  UNL1        0.0939
     15 N          -2.2161    0.9222    0.0382 N.ar    1  UNL1       -0.1643
     16 N          -1.1513    0.0614   -0.0784 N.ar    1  UNL1       -0.2099
     17 C          -1.3911   -1.3402   -0.2981 C.ar    1  UNL1        0.1547
     18 C          -2.7052   -1.8114   -0.2508 C.ar    1  UNL1       -0.0174
     19 C          -2.9462   -3.1672   -0.4662 C.ar    1  UNL1       -0.0568
     20 C          -1.8791   -4.0169   -0.7243 C.ar    1  UNL1       -0.0435
     21 C          -0.6077   -3.4732   -0.7627 C.ar    1  UNL1        0.0300
     22 N          -0.3429   -2.1635   -0.5664 N.ar    1  UNL1       -0.2361
     23 H           4.7776   -2.2576    1.2494 H       1  UNL1        0.1114
     24 H           4.3363   -0.8124   -1.1047 H       1  UNL1        0.0656
     25 H           2.2185    0.6697   -1.9703 H       1  UNL1        0.0656
     26 H           1.7244    3.0355    0.2103 H       1  UNL1        0.0625
     27 H           0.5757    5.2605    0.4352 H       1  UNL1        0.0618
     28 H          -1.8698    5.4839    0.4765 H       1  UNL1        0.0618
     29 H          -3.4052    3.4901    0.2989 H       1  UNL1        0.0639
     30 H          -3.5399   -1.1481   -0.0428 H       1  UNL1        0.0655
     31 H          -3.9608   -3.5537   -0.4272 H       1  UNL1        0.0619
     32 H          -2.0340   -5.0770   -0.8895 H       1  UNL1        0.0633
     33 H           0.2607   -4.0957   -0.9579 H       1  UNL1        0.0830
@<TRIPOS>BOND
     1     1     2    2
     2     2     3    1
     3     3     4   ar
     4     4     5   ar
     5     5     6   ar
     6     6     7   ar
     7     6     8    1
     8     8     9   ar
     9     9    10   ar
    10    10    11   ar
    11    11    12   ar
    12    12    13   ar
    13     9    14   ar
    14    14    15   ar
    15    15    16   ar
    16    16    17    1
    17    17    18   ar
    18    18    19   ar
    19    19    20   ar
    20    20    21   ar
    21    21    22   ar
    22     7     3   ar
    23    16     8   ar
    24    14    13   ar
    25    22    17   ar
    26     2    23    1
    27     4    24    1
    28     5    25    1
    29    10    26    1
    30    11    27    1
    31    12    28    1
    32    13    29    1
    33    18    30    1
    34    19    31    1
    35    20    32    1
    36    21    33    1
