@<TRIPOS>MOLECULE
*****
 40 46 0 0 0
SMALL
GASTEIGER

@<TRIPOS>ATOM
      1 SI         -0.4429   -1.3360   -1.3855 Si      1  UNL1        0.0000
      2 C           1.1890   -0.5989   -0.8111 C.ar    1  UNL1        0.0000
      3 C           2.5592   -0.6755   -1.0178 C.ar    1  UNL1        0.0000
      4 C           3.1545    0.2544   -0.1535 C.ar    1  UNL1        0.0000
      5 N           2.1137    0.8673    0.5531 N.ar    1  UNL1        0.0000
      6 C           0.9295    0.3444    0.1482 C.ar    1  UNL1        0.0000
      7 C          -0.4266    0.5777    0.5089 C.ar    1  UNL1        0.0000
      8 S          -1.0976    1.6306    1.6160 S.2     1  UNL1        0.0000
      9 C          -2.7074    1.0821    1.2264 C.ar    1  UNL1        0.0000
     10 C          -3.8851    1.5690    1.8212 C.ar    1  UNL1        0.0000
     11 C          -5.1136    1.0492    1.4234 C.ar    1  UNL1        0.0000
     12 C          -5.1947    0.0577    0.4490 C.ar    1  UNL1        0.0000
     13 C          -6.4491   -0.4461    0.0695 C.ar    1  UNL1        0.0000
     14 C          -6.5597   -1.4383   -0.9028 C.ar    1  UNL1        0.0000
     15 C          -5.4160   -1.9403   -1.5094 C.ar    1  UNL1        0.0000
     16 C          -4.1582   -1.4518   -1.1455 C.ar    1  UNL1        0.0000
     17 C          -4.0140   -0.4455   -0.1623 C.ar    1  UNL1        0.0000
     18 C          -2.7282    0.0780    0.2336 C.ar    1  UNL1        0.0000
     19 C          -1.3826   -0.1743   -0.1449 C.ar    1  UNL1        0.0000
     20 C           4.5665    0.6023    0.0564 C.ar    1  UNL1        0.0000
     21 C           5.0204    1.5687    0.9701 C.ar    1  UNL1        0.0000
     22 N           6.3116    1.9613    1.2357 N.ar    1  UNL1        0.0000
     23 C           7.3557    1.3926    0.5727 C.ar    1  UNL1        0.0000
     24 C           7.0722    0.3997   -0.3836 C.ar    1  UNL1        0.0000
     25 N           7.9750   -0.2621   -1.1254 N.ar    1  UNL1        0.0000
     26 S           7.1165   -1.3090   -2.0803 S.2     1  UNL1        0.0000
     27 N           5.5709   -0.9698   -1.5967 N.ar    1  UNL1        0.0000
     28 C           5.6392   -0.0106   -0.6531 C.ar    1  UNL1        0.0000
     29 H          -0.7816   -1.0216   -2.7976 H       1  UNL1        0.0000
     30 H          -0.6131   -2.7693   -1.0334 H       1  UNL1        0.0000
     31 H           3.0781   -1.3252   -1.7111 H       1  UNL1        0.0000
     32 H           2.2081    1.5860    1.2563 H       1  UNL1        0.0000
     33 H          -3.8403    2.3424    2.5831 H       1  UNL1        0.0000
     34 H          -6.0155    1.4368    1.8935 H       1  UNL1        0.0000
     35 H          -7.3584   -0.0670    0.5318 H       1  UNL1        0.0000
     36 H          -7.5385   -1.8172   -1.1848 H       1  UNL1        0.0000
     37 H          -5.4984   -2.7143   -2.2683 H       1  UNL1        0.0000
     38 H          -3.3000   -1.8770   -1.6487 H       1  UNL1        0.0000
     39 H           4.3069    2.1181    1.5823 H       1  UNL1        0.0000
     40 H           8.3547    1.7313    0.8128 H       1  UNL1        0.0000
@<TRIPOS>BOND
     1     1     2    1
     2     2     3   ar
     3     3     4   ar
     4     4     5   ar
     5     5     6   ar
     6     6     7    1
     7     7     8   ar
     8     8     9   ar
     9     9    10   ar
    10    10    11   ar
    11    11    12   ar
    12    12    13   ar
    13    13    14   ar
    14    14    15   ar
    15    15    16   ar
    16    16    17   ar
    17    17    18   ar
    18    18    19   ar
    19     4    20    1
    20    20    21   ar
    21    21    22   ar
    22    22    23   ar
    23    23    24   ar
    24    24    25   ar
    25    25    26   ar
    26    26    27   ar
    27    27    28   ar
    28    19     1    1
    29    28    20   ar
    30     6     2   ar
    31    19     7   ar
    32    28    24   ar
    33    18     9   ar
    34    17    12   ar
    35     1    29    1
    36     1    30    1
    37     3    31    1
    38     5    32    1
    39    10    33    1
    40    11    34    1
    41    13    35    1
    42    14    36    1
    43    15    37    1
    44    16    38    1
    45    21    39    1
    46    23    40    1
