@<TRIPOS>MOLECULE
*****
 33 36 0 0 0
SMALL
GASTEIGER

@<TRIPOS>ATOM
      1 O           0.4264    1.4715   -1.7605 O.2     1  UNL1       -0.1463
      2 S           0.3904    0.0197   -1.7975 S.O2    1  UNL1        0.1012
      3 O           0.1527   -0.7077   -3.0296 O.2     1  UNL1       -0.1463
      4 C          -0.7775   -0.5722   -0.5879 C.ar    1  UNL1        0.1202
      5 C          -0.4139   -1.6592    0.2245 C.ar    1  UNL1       -0.0342
      6 C          -1.2810   -2.1113    1.2114 C.ar    1  UNL1       -0.0593
      7 C          -2.5147   -1.4931    1.3853 C.ar    1  UNL1       -0.0539
      8 C          -2.9156   -0.4300    0.5630 C.ar    1  UNL1       -0.0160
      9 C          -4.1816    0.1472    0.7562 C.ar    1  UNL1       -0.0540
     10 C          -4.6299    1.1879   -0.0525 C.ar    1  UNL1       -0.0612
     11 C          -3.8180    1.6605   -1.0715 C.ar    1  UNL1       -0.0611
     12 C          -2.5542    1.0992   -1.2745 C.ar    1  UNL1       -0.0521
     13 C          -2.0547    0.0495   -0.4589 C.ar    1  UNL1        0.0090
     14 N           1.9381   -0.4615   -1.2437 N.ar    1  UNL1       -0.1086
     15 N           2.5672   -1.6000   -1.6313 N.ar    1  UNL1       -0.0426
     16 N           3.6599   -1.7291   -0.8928 N.ar    1  UNL1       -0.1279
     17 C           3.6950   -0.6946    0.0007 C.ar    1  UNL1        0.1147
     18 C           4.6262   -0.4047    1.0082 C.ar    1  UNL1       -0.0323
     19 C           4.4126    0.7166    1.8175 C.ar    1  UNL1       -0.0596
     20 C           3.2954    1.5308    1.6277 C.ar    1  UNL1       -0.0596
     21 C           2.3571    1.2585    0.6251 C.ar    1  UNL1       -0.0325
     22 C           2.5908    0.1342   -0.1808 C.ar    1  UNL1        0.1145
     23 H           0.5278   -2.1886    0.1054 H       1  UNL1        0.0637
     24 H          -1.0007   -2.9509    1.8438 H       1  UNL1        0.0618
     25 H          -3.1771   -1.8650    2.1656 H       1  UNL1        0.0624
     26 H          -4.8398   -0.2177    1.5427 H       1  UNL1        0.0624
     27 H          -5.6138    1.6204    0.1085 H       1  UNL1        0.0618
     28 H          -4.1632    2.4647   -1.7169 H       1  UNL1        0.0618
     29 H          -1.9735    1.5016   -2.1018 H       1  UNL1        0.0624
     30 H           5.4910   -1.0435    1.1558 H       1  UNL1        0.0640
     31 H           5.1268    0.9550    2.6032 H       1  UNL1        0.0618
     32 H           3.1523    2.3998    2.2687 H       1  UNL1        0.0618
     33 H           1.4997    1.9117    0.4863 H       1  UNL1        0.0640
@<TRIPOS>BOND
     1     1     2    2
     2     2     3    2
     3     2     4    1
     4     4     5   ar
     5     5     6   ar
     6     6     7   ar
     7     7     8   ar
     8     8     9   ar
     9     9    10   ar
    10    10    11   ar
    11    11    12   ar
    12    12    13   ar
    13     2    14    1
    14    14    15   ar
    15    15    16   ar
    16    16    17   ar
    17    17    18   ar
    18    18    19   ar
    19    19    20   ar
    20    20    21   ar
    21    21    22   ar
    22    13     4   ar
    23    22    14   ar
    24    13     8   ar
    25    22    17   ar
    26     5    23    1
    27     6    24    1
    28     7    25    1
    29     9    26    1
    30    10    27    1
    31    11    28    1
    32    12    29    1
    33    18    30    1
    34    19    31    1
    35    20    32    1
    36    21    33    1
