@<TRIPOS>MOLECULE
*****
 26 27 0 0 0
SMALL
GASTEIGER

@<TRIPOS>ATOM
      1 O          -0.8765    3.1373   -0.8157 O.2     1  UNL1       -0.1499
      2 S          -0.2547    1.8325   -0.9428 S.O2    1  UNL1        0.0735
      3 O           0.5026    1.5053   -2.1326 O.2     1  UNL1       -0.1499
      4 N           0.7236    1.6851    0.4051 N.pl3   1  UNL1       -0.1995
      5 C           1.6554    0.6366    0.4697 C.ar    1  UNL1        0.1378
      6 C           2.8921    0.8557    1.0620 C.ar    1  UNL1       -0.0191
      7 C           3.7682   -0.2220    1.1966 C.ar    1  UNL1       -0.0386
      8 C           3.3674   -1.4773    0.7572 C.ar    1  UNL1        0.0592
      9 CL          4.4094   -2.8311    0.9037 Cl      1  UNL1       -0.0820
     10 C           2.1017   -1.6045    0.2083 C.ar    1  UNL1        0.0480
     11 N           1.2321   -0.5734    0.0710 N.ar    1  UNL1       -0.2376
     12 C          -1.5361    0.6314   -0.6942 C.ar    1  UNL1        0.1085
     13 C          -2.5165    0.8686    0.2750 C.ar    1  UNL1       -0.0351
     14 C          -3.5474   -0.0549    0.4494 C.ar    1  UNL1       -0.0599
     15 C          -3.6007   -1.2008   -0.3465 C.ar    1  UNL1       -0.0616
     16 C          -2.6272   -1.4265   -1.3216 C.ar    1  UNL1       -0.0599
     17 C          -1.5937   -0.5072   -1.5027 C.ar    1  UNL1       -0.0351
     18 H           0.9475    2.5824    0.8213 H       1  UNL1        0.1752
     19 H           3.1847    1.8405    1.4079 H       1  UNL1        0.0653
     20 H           4.7477   -0.0763    1.6428 H       1  UNL1        0.0634
     21 H           1.7325   -2.5636   -0.1437 H       1  UNL1        0.0845
     22 H          -2.4838    1.7658    0.8878 H       1  UNL1        0.0637
     23 H          -4.3125    0.1196    1.2017 H       1  UNL1        0.0618
     24 H          -4.4058   -1.9186   -0.2095 H       1  UNL1        0.0618
     25 H          -2.6745   -2.3183   -1.9415 H       1  UNL1        0.0618
     26 H          -0.8356   -0.6863   -2.2615 H       1  UNL1        0.0637
@<TRIPOS>BOND
     1     1     2    2
     2     2     3    2
     3     2     4    1
     4     4     5    1
     5     5     6   ar
     6     6     7   ar
     7     7     8   ar
     8     8     9    1
     9     8    10   ar
    10    10    11   ar
    11     2    12    1
    12    12    13   ar
    13    13    14   ar
    14    14    15   ar
    15    15    16   ar
    16    16    17   ar
    17    11     5   ar
    18    17    12   ar
    19     4    18    1
    20     6    19    1
    21     7    20    1
    22    10    21    1
    23    13    22    1
    24    14    23    1
    25    15    24    1
    26    16    25    1
    27    17    26    1
