@<TRIPOS>MOLECULE
*****
 35 37 0 0 0
SMALL
GASTEIGER

@<TRIPOS>ATOM
      1 O          -1.3608   -2.4543    2.4005 O.2     1  UNL1       -0.1530
      2 S          -0.8819   -2.3840    1.0386 S.O2    1  UNL1        0.0607
      3 O          -0.6944   -3.5818    0.2438 O.2     1  UNL1       -0.1530
      4 N           0.5908   -1.5585    1.0386 N.3     1  UNL1       -0.1856
      5 C           1.2873   -1.4886   -0.2521 C.3     1  UNL1        0.0425
      6 C           2.4343   -0.5086   -0.1881 C.ar    1  UNL1       -0.0319
      7 C           2.2633    0.8208   -0.6012 C.ar    1  UNL1       -0.0573
      8 C           3.3240    1.7246   -0.5233 C.ar    1  UNL1       -0.0615
      9 C           4.5576    1.3128   -0.0217 C.ar    1  UNL1       -0.0617
     10 C           4.7330   -0.0021    0.4066 C.ar    1  UNL1       -0.0615
     11 C           3.6753   -0.9081    0.3282 C.ar    1  UNL1       -0.0573
     12 C          -1.9994   -1.3344    0.1515 C.ar    1  UNL1        0.1310
     13 C          -2.9056   -1.9424   -0.7337 C.ar    1  UNL1       -0.0332
     14 C          -3.8008   -1.1576   -1.4473 C.ar    1  UNL1       -0.0592
     15 C          -3.7844    0.2229   -1.2746 C.ar    1  UNL1       -0.0525
     16 C          -2.8697    0.8254   -0.3911 C.ar    1  UNL1        0.0023
     17 C          -2.8570    2.2176   -0.2264 C.ar    1  UNL1       -0.0511
     18 C          -1.9511    2.8104    0.6429 C.ar    1  UNL1       -0.0430
     19 C          -1.0768    1.9872    1.3193 C.ar    1  UNL1        0.0283
     20 N          -1.0545    0.6412    1.1794 N.ar    1  UNL1       -0.2530
     21 C          -1.9470    0.0479    0.3457 C.ar    1  UNL1        0.0972
     22 H           0.4203   -0.6249    1.4374 H       1  UNL1        0.1484
     23 H           1.6704   -2.4789   -0.5234 H       1  UNL1        0.0490
     24 H           0.6027   -1.1740   -1.0489 H       1  UNL1        0.0490
     25 H           1.3034    1.1579   -0.9862 H       1  UNL1        0.0621
     26 H           3.1884    2.7519   -0.8506 H       1  UNL1        0.0618
     27 H           5.3826    2.0170    0.0396 H       1  UNL1        0.0618
     28 H           5.6921   -0.3248    0.8039 H       1  UNL1        0.0618
     29 H           3.8184   -1.9289    0.6780 H       1  UNL1        0.0621
     30 H          -2.9195   -3.0237   -0.8582 H       1  UNL1        0.0638
     31 H          -4.5108   -1.6184   -2.1294 H       1  UNL1        0.0618
     32 H          -4.4920    0.8309   -1.8343 H       1  UNL1        0.0624
     33 H          -3.5580    2.8462   -0.7721 H       1  UNL1        0.0625
     34 H          -1.9332    3.8842    0.7885 H       1  UNL1        0.0633
     35 H          -0.3471    2.3954    2.0159 H       1  UNL1        0.0830
@<TRIPOS>BOND
     1     1     2    2
     2     2     3    2
     3     2     4    1
     4     4     5    1
     5     5     6    1
     6     6     7   ar
     7     7     8   ar
     8     8     9   ar
     9     9    10   ar
    10    10    11   ar
    11     2    12    1
    12    12    13   ar
    13    13    14   ar
    14    14    15   ar
    15    15    16   ar
    16    16    17   ar
    17    17    18   ar
    18    18    19   ar
    19    19    20   ar
    20    20    21   ar
    21    11     6   ar
    22    21    12   ar
    23    21    16   ar
    24     4    22    1
    25     5    23    1
    26     5    24    1
    27     7    25    1
    28     8    26    1
    29     9    27    1
    30    10    28    1
    31    11    29    1
    32    13    30    1
    33    14    31    1
    34    15    32    1
    35    17    33    1
    36    18    34    1
    37    19    35    1
