@<TRIPOS>MOLECULE
*****
 23 24 0 0 0
SMALL
GASTEIGER

@<TRIPOS>ATOM
      1 O           1.3869    1.5213    0.4400 O.2     1  UNL1       -0.1488
      2 S           0.6386    0.7689   -0.5395 S.O2    1  UNL1        0.0854
      3 O           0.6777    1.0817   -1.9509 O.2     1  UNL1       -0.1488
      4 N           1.0720   -0.8597   -0.4287 N.pl3   1  UNL1       -0.1502
      5 N           2.4997   -1.0220   -0.2263 N.ar    1  UNL1       -0.2211
      6 C           3.0876   -1.4610    0.9120 C.ar    1  UNL1        0.1387
      7 N           4.3738   -1.6257    0.6882 N.ar    1  UNL1       -0.1365
      8 N           4.6172   -1.2848   -0.6309 N.ar    1  UNL1       -0.1365
      9 C           3.4715   -0.9233   -1.1673 C.ar    1  UNL1        0.1387
     10 C          -1.0509    0.7068   -0.0113 C.ar    1  UNL1        0.1099
     11 C          -2.0813    0.7971   -0.9512 C.ar    1  UNL1       -0.0350
     12 C          -3.4069    0.7553   -0.5187 C.ar    1  UNL1       -0.0599
     13 C          -3.6955    0.6315    0.8419 C.ar    1  UNL1       -0.0616
     14 C          -2.6618    0.5541    1.7770 C.ar    1  UNL1       -0.0599
     15 C          -1.3338    0.5951    1.3537 C.ar    1  UNL1       -0.0350
     16 H           0.7735   -1.3395   -1.2791 H       1  UNL1        0.1951
     17 H           2.5624   -1.6459    1.8361 H       1  UNL1        0.1065
     18 H           3.3103   -0.6014   -2.1853 H       1  UNL1        0.1065
     19 H          -1.8672    0.9061   -2.0120 H       1  UNL1        0.0637
     20 H          -4.2179    0.8262   -1.2401 H       1  UNL1        0.0618
     21 H          -4.7306    0.6039    1.1756 H       1  UNL1        0.0618
     22 H          -2.8937    0.4689    2.8362 H       1  UNL1        0.0618
     23 H          -0.5316    0.5465    2.0868 H       1  UNL1        0.0637
@<TRIPOS>BOND
     1     1     2    2
     2     2     3    2
     3     2     4    1
     4     4     5    1
     5     5     6   ar
     6     6     7   ar
     7     7     8   ar
     8     8     9   ar
     9     2    10    1
    10    10    11   ar
    11    11    12   ar
    12    12    13   ar
    13    13    14   ar
    14    14    15   ar
    15     9     5   ar
    16    15    10   ar
    17     4    16    1
    18     6    17    1
    19     9    18    1
    20    11    19    1
    21    12    20    1
    22    13    21    1
    23    14    22    1
    24    15    23    1
