@<TRIPOS>MOLECULE
*****
 24 25 0 0 0
SMALL
GASTEIGER

@<TRIPOS>ATOM
      1 O          -2.5814   -0.4681    2.5190 O.2     1  UNL1       -0.1463
      2 S          -1.8551    0.3746    1.3547 S.O2    1  UNL1        0.1004
      3 O          -2.3331    1.8757    1.6887 O.2     1  UNL1       -0.1463
      4 N          -0.3052    0.2617    1.4981 N.2     1  UNL1       -0.1215
      5 C           0.0429   -0.1980    0.2866 C.2     1  UNL1        0.1278
      6 S           1.7309   -0.5312   -0.0978 S.3     1  UNL1       -0.1015
      7 C           2.5922    0.5169    1.1236 C.3     1  UNL1        0.0230
      8 C           4.1022    0.4815    0.9035 C.3     1  UNL1        0.0536
      9 O           4.4553    1.1798   -0.2868 O.3     1  UNL1       -0.3942
     10 C          -1.0563   -0.4354   -0.6954 C.ar    1  UNL1        0.0352
     11 C          -1.0606   -0.9103   -2.0310 C.ar    1  UNL1       -0.0501
     12 C          -2.2692   -1.0324   -2.7276 C.ar    1  UNL1       -0.0610
     13 C          -3.4775   -0.6923   -2.1261 C.ar    1  UNL1       -0.0599
     14 C          -3.5178   -0.2200   -0.8119 C.ar    1  UNL1       -0.0342
     15 C          -2.3065   -0.1003   -0.1197 C.ar    1  UNL1        0.1222
     16 H           2.2269    1.5445    1.0242 H       1  UNL1        0.0403
     17 H           2.3654    0.1477    2.1286 H       1  UNL1        0.0403
     18 H           4.6023    0.9835    1.7384 H       1  UNL1        0.0565
     19 H           4.4817   -0.5444    0.8447 H       1  UNL1        0.0565
     20 H           5.4183    1.0941   -0.3940 H       1  UNL1        0.2094
     21 H          -0.1283   -1.1808   -2.5233 H       1  UNL1        0.0625
     22 H          -2.2616   -1.3974   -3.7533 H       1  UNL1        0.0618
     23 H          -4.4053   -0.7952   -2.6868 H       1  UNL1        0.0618
     24 H          -4.4603    0.0456   -0.3402 H       1  UNL1        0.0637
@<TRIPOS>BOND
     1     1     2    2
     2     2     3    2
     3     2     4    1
     4     4     5    2
     5     5     6    1
     6     6     7    1
     7     7     8    1
     8     8     9    1
     9     5    10    1
    10    10    11   ar
    11    11    12   ar
    12    12    13   ar
    13    13    14   ar
    14    14    15   ar
    15    15     2    1
    16    15    10   ar
    17     7    16    1
    18     7    17    1
    19     8    18    1
    20     8    19    1
    21     9    20    1
    22    11    21    1
    23    12    22    1
    24    13    23    1
    25    14    24    1
