@<TRIPOS>MOLECULE
*****
 33 34 0 0 0
SMALL
GASTEIGER

@<TRIPOS>ATOM
      1 O          -2.0336    2.1444   -0.1192 O.3     1  UNL1       -0.3751
      2 C          -2.1680    0.8715   -0.7506 C.3     1  UNL1        0.1410
      3 C          -0.8507    0.2221   -0.8144 C.1     1  UNL1       -0.0648
      4 C           0.2396   -0.2819   -0.8662 C.1     1  UNL1       -0.0838
      5 C           1.5785   -0.8868   -0.9172 C.3     1  UNL1        0.0610
      6 N           2.6236    0.1342   -0.8338 N.3     1  UNL1       -0.2915
      7 C           2.7021    0.7706    0.4842 C.3     1  UNL1       -0.0002
      8 C           4.0655    1.4475    0.4620 C.3     1  UNL1       -0.0390
      9 C           4.8813    0.6704   -0.5650 C.3     1  UNL1       -0.0390
     10 C           3.9553   -0.4331   -1.0516 C.3     1  UNL1       -0.0002
     11 C          -3.1811    0.0232   -0.0103 C.ar    1  UNL1       -0.0072
     12 C          -3.3473    0.1218    1.3807 C.ar    1  UNL1       -0.0552
     13 C          -4.2693   -0.6858    2.0494 C.ar    1  UNL1       -0.0614
     14 C          -5.0331   -1.6088    1.3383 C.ar    1  UNL1       -0.0617
     15 C          -4.8744   -1.7271   -0.0408 C.ar    1  UNL1       -0.0614
     16 C          -3.9528   -0.9195   -0.7108 C.ar    1  UNL1       -0.0552
     17 H          -1.2517    2.5587   -0.5210 H       1  UNL1        0.2115
     18 H          -2.5375    1.0681   -1.7638 H       1  UNL1        0.0783
     19 H           1.6843   -1.6361   -0.1228 H       1  UNL1        0.0563
     20 H           1.6704   -1.4200   -1.8718 H       1  UNL1        0.0563
     21 H           2.6717    0.0312    1.2950 H       1  UNL1        0.0427
     22 H           1.9025    1.5001    0.6474 H       1  UNL1        0.0427
     23 H           4.5365    1.4299    1.4501 H       1  UNL1        0.0278
     24 H           3.9768    2.4948    0.1504 H       1  UNL1        0.0278
     25 H           5.1640    1.3330   -1.3916 H       1  UNL1        0.0278
     26 H           5.8003    0.2638   -0.1313 H       1  UNL1        0.0278
     27 H           4.1130   -1.3403   -0.4540 H       1  UNL1        0.0427
     28 H           4.1351   -0.6731   -2.1043 H       1  UNL1        0.0427
     29 H          -2.7557    0.8375    1.9485 H       1  UNL1        0.0621
     30 H          -4.3897   -0.5925    3.1253 H       1  UNL1        0.0618
     31 H          -5.7506   -2.2366    1.8596 H       1  UNL1        0.0618
     32 H          -5.4672   -2.4499   -0.5952 H       1  UNL1        0.0618
     33 H          -3.8377   -1.0311   -1.7869 H       1  UNL1        0.0621
@<TRIPOS>BOND
     1     1     2    1
     2     2     3    1
     3     3     4    3
     4     4     5    1
     5     5     6    1
     6     6     7    1
     7     7     8    1
     8     8     9    1
     9     9    10    1
    10     2    11    1
    11    11    12   ar
    12    12    13   ar
    13    13    14   ar
    14    14    15   ar
    15    15    16   ar
    16    10     6    1
    17    16    11   ar
    18     1    17    1
    19     2    18    1
    20     5    19    1
    21     5    20    1
    22     7    21    1
    23     7    22    1
    24     8    23    1
    25     8    24    1
    26     9    25    1
    27     9    26    1
    28    10    27    1
    29    10    28    1
    30    12    29    1
    31    13    30    1
    32    14    31    1
    33    15    32    1
    34    16    33    1
