@<TRIPOS>MOLECULE
*****
 26 29 0 0 0
SMALL
GASTEIGER

@<TRIPOS>ATOM
      1 O          -4.2075    0.5904   -1.7034 O.3     1  UNL1       -0.4771
      2 C          -4.1648    0.0833   -0.4587 C.2     1  UNL1        0.3368
      3 C          -2.7792   -0.0880    0.0457 C.ar    1  UNL1        0.0595
      4 C          -1.6678    0.2610   -0.7412 C.ar    1  UNL1       -0.0380
      5 C          -0.4187    0.0675   -0.1909 C.ar    1  UNL1        0.0103
      6 C          -0.2637   -0.4731    1.1427 C.ar    1  UNL1        0.0269
      7 C          -1.3493   -0.8157    1.9156 C.ar    1  UNL1       -0.0497
      8 C          -2.6169   -0.6181    1.3541 C.ar    1  UNL1       -0.0471
      9 C           1.1562   -0.5527    1.4244 C.ar    1  UNL1        0.1463
     10 N           2.0439   -0.8981    2.3248 N.ar    1  UNL1       -0.2349
     11 C           3.2828   -0.6131    1.7025 C.ar    1  UNL1        0.0538
     12 C           3.1103   -0.0969    0.4276 C.ar    1  UNL1        0.0666
     13 N           1.7672   -0.0860    0.3187 N.ar    1  UNL1       -0.2921
     14 C           0.9448    0.3127   -0.7083 C.ar    1  UNL1        0.0564
     15 C           1.5574    0.7774   -1.8090 C.ar    1  UNL1       -0.0371
     16 C           3.0417    0.8066   -1.7898 C.ar    1  UNL1       -0.0578
     17 C           3.7839    0.3909   -0.7261 C.ar    1  UNL1       -0.0362
     18 O          -5.1838   -0.1896    0.1474 O.2     1  UNL1       -0.2451
     19 H          -5.1667    0.6466   -1.8998 H       1  UNL1        0.2954
     20 H          -1.7810    0.6661   -1.7405 H       1  UNL1        0.0632
     21 H          -1.2272   -1.2206    2.9148 H       1  UNL1        0.0625
     22 H          -3.4982   -0.8795    1.9404 H       1  UNL1        0.0626
     23 H           4.2108   -0.8038    2.2263 H       1  UNL1        0.0851
     24 H           1.0257    1.1226   -2.6871 H       1  UNL1        0.0638
     25 H           3.5320    1.1838   -2.6837 H       1  UNL1        0.0619
     26 H           4.8683    0.4263   -0.7464 H       1  UNL1        0.0639
@<TRIPOS>BOND
     1     1     2    1
     2     2     3    1
     3     3     4   ar
     4     4     5   ar
     5     5     6   ar
     6     6     7   ar
     7     7     8   ar
     8     6     9   ar
     9     9    10   ar
    10    10    11   ar
    11    11    12   ar
    12    12    13   ar
    13    13    14   ar
    14    14    15   ar
    15    15    16   ar
    16    16    17   ar
    17     2    18    2
    18     8     3   ar
    19    14     5   ar
    20    13     9   ar
    21    17    12   ar
    22     1    19    1
    23     4    20    1
    24     7    21    1
    25     8    22    1
    26    11    23    1
    27    15    24    1
    28    16    25    1
    29    17    26    1
