@<TRIPOS>MOLECULE
*****
 33 35 0 0 0
SMALL
GASTEIGER

@<TRIPOS>ATOM
      1 O          -0.6022   -0.7306    0.7631 O.3     1  UNL1       -0.3856
      2 C          -1.3451    0.4224    0.3566 C.3     1  UNL1        0.0956
      3 C          -1.0021    0.8166   -1.1023 C.3     1  UNL1        0.0411
      4 N           0.2880    1.5038   -1.2137 N.pl3   1  UNL1       -0.3207
      5 C           1.4598    0.8267   -1.1144 C.ar    1  UNL1        0.1593
      6 N           2.4959    1.3787   -0.5281 N.ar    1  UNL1       -0.2249
      7 C           3.5833    0.5230   -0.5580 C.ar    1  UNL1        0.0803
      8 C           4.8550    0.7816   -0.0062 C.ar    1  UNL1       -0.0351
      9 C           5.8680   -0.1775   -0.1110 C.ar    1  UNL1       -0.0597
     10 C           5.6290   -1.3858   -0.7579 C.ar    1  UNL1       -0.0606
     11 C           4.3771   -1.6653   -1.3149 C.ar    1  UNL1       -0.0458
     12 C           3.3678   -0.6941   -1.2026 C.ar    1  UNL1        0.0408
     13 S           1.7502   -0.7346   -1.7794 S.2     1  UNL1       -0.0524
     14 C          -2.8228    0.1320    0.5280 C.ar    1  UNL1       -0.0177
     15 C          -3.6390    1.0148    1.2502 C.ar    1  UNL1       -0.0561
     16 C          -5.0022    0.7551    1.4025 C.ar    1  UNL1       -0.0614
     17 C          -5.5642   -0.3870    0.8354 C.ar    1  UNL1       -0.0617
     18 C          -4.7648   -1.2721    0.1154 C.ar    1  UNL1       -0.0614
     19 C          -3.4021   -1.0149   -0.0386 C.ar    1  UNL1       -0.0561
     20 H          -1.0315   -1.0784    1.5637 H       1  UNL1        0.2103
     21 H          -1.0509    1.2344    1.0327 H       1  UNL1        0.0659
     22 H          -1.7595    1.5192   -1.4718 H       1  UNL1        0.0490
     23 H          -1.0412   -0.0554   -1.7657 H       1  UNL1        0.0490
     24 H           0.3214    2.3780   -0.6977 H       1  UNL1        0.1480
     25 H           5.0357    1.7262    0.4965 H       1  UNL1        0.0639
     26 H           6.8468    0.0263    0.3164 H       1  UNL1        0.0618
     27 H           6.4250   -2.1238   -0.8332 H       1  UNL1        0.0618
     28 H           4.1905   -2.6075   -1.8207 H       1  UNL1        0.0629
     29 H          -3.2213    1.9129    1.7007 H       1  UNL1        0.0621
     30 H          -5.6274    1.4449    1.9642 H       1  UNL1        0.0618
     31 H          -6.6258   -0.5877    0.9551 H       1  UNL1        0.0618
     32 H          -5.2025   -2.1639   -0.3262 H       1  UNL1        0.0618
     33 H          -2.7889   -1.7179   -0.6005 H       1  UNL1        0.0621
@<TRIPOS>BOND
     1     1     2    1
     2     2     3    1
     3     3     4    1
     4     4     5    1
     5     5     6   ar
     6     6     7   ar
     7     7     8   ar
     8     8     9   ar
     9     9    10   ar
    10    10    11   ar
    11    11    12   ar
    12    12    13   ar
    13     2    14    1
    14    14    15   ar
    15    15    16   ar
    16    16    17   ar
    17    17    18   ar
    18    18    19   ar
    19    13     5   ar
    20    19    14   ar
    21    12     7   ar
    22     1    20    1
    23     2    21    1
    24     3    22    1
    25     3    23    1
    26     4    24    1
    27     8    25    1
    28     9    26    1
    29    10    27    1
    30    11    28    1
    31    15    29    1
    32    16    30    1
    33    17    31    1
    34    18    32    1
    35    19    33    1
