@<TRIPOS>MOLECULE
*****
 40 43 0 0 0
SMALL
GASTEIGER

@<TRIPOS>ATOM
      1 O           0.8559   -0.4751   -2.1994 O.3     1  UNL1       -0.3789
      2 C           0.7138   -0.6508   -0.7822 C.3     1  UNL1        0.1219
      3 C           2.0450   -0.3956   -0.0787 C.ar    1  UNL1       -0.0113
      4 C           3.2561   -0.4312   -0.7925 C.ar    1  UNL1       -0.0555
      5 C           4.4788   -0.2209   -0.1505 C.ar    1  UNL1       -0.0614
      6 C           4.5151    0.0212    1.2195 C.ar    1  UNL1       -0.0617
      7 C           3.3303    0.0490    1.9493 C.ar    1  UNL1       -0.0614
      8 C           2.1070   -0.1622    1.3084 C.ar    1  UNL1       -0.0555
      9 C           0.2713   -2.1008   -0.5366 C.3     1  UNL1        0.0286
     10 C          -1.1918   -1.9576   -0.2121 C.2     1  UNL1        0.0658
     11 N          -1.9008   -3.0320   -0.1079 N.2     1  UNL1       -0.1690
     12 N          -3.2425   -2.9257    0.0772 N.ar    1  UNL1       -0.2069
     13 C          -3.9946   -3.7548    0.8658 C.ar    1  UNL1        0.1414
     14 N          -5.2623   -3.4132    0.8135 N.ar    1  UNL1       -0.1363
     15 N          -5.3733   -2.3796   -0.0860 N.ar    1  UNL1       -0.1363
     16 C          -4.1695   -2.1336   -0.5513 C.ar    1  UNL1        0.1414
     17 C          -1.5486   -0.5408   -0.0032 C.2     1  UNL1       -0.0318
     18 C          -0.4640    0.1889   -0.3071 C.2     1  UNL1       -0.0025
     19 C          -0.4335    1.6694   -0.2281 C.ar    1  UNL1       -0.0187
     20 C           0.4776    2.4255   -0.9822 C.ar    1  UNL1       -0.0542
     21 C           0.5096    3.8218   -0.8985 C.ar    1  UNL1       -0.0612
     22 C          -0.3671    4.4922   -0.0530 C.ar    1  UNL1       -0.0617
     23 C          -1.2713    3.7660    0.7135 C.ar    1  UNL1       -0.0612
     24 C          -1.3011    2.3697    0.6294 C.ar    1  UNL1       -0.0542
     25 H          -0.0017   -0.1945   -2.5595 H       1  UNL1        0.2111
     26 H           3.2564   -0.6239   -1.8640 H       1  UNL1        0.0621
     27 H           5.4023   -0.2477   -0.7231 H       1  UNL1        0.0618
     28 H           5.4665    0.1860    1.7182 H       1  UNL1        0.0618
     29 H           3.3570    0.2356    3.0199 H       1  UNL1        0.0618
     30 H           1.2005   -0.1381    1.9094 H       1  UNL1        0.0621
     31 H           0.3958   -2.7389   -1.4182 H       1  UNL1        0.0364
     32 H           0.7588   -2.5757    0.3230 H       1  UNL1        0.0364
     33 H          -3.5631   -4.5529    1.4499 H       1  UNL1        0.1067
     34 H          -3.9228   -1.4271   -1.3282 H       1  UNL1        0.1067
     35 H          -2.5042   -0.1916    0.3474 H       1  UNL1        0.0640
     36 H           1.1891    1.9502   -1.6536 H       1  UNL1        0.0624
     37 H           1.2268    4.3819   -1.4935 H       1  UNL1        0.0618
     38 H          -0.3398    5.5766    0.0137 H       1  UNL1        0.0618
     39 H          -1.9519    4.2838    1.3850 H       1  UNL1        0.0618
     40 H          -2.0097    1.8463    1.2663 H       1  UNL1        0.0624
@<TRIPOS>BOND
     1     1     2    1
     2     2     3    1
     3     3     4   ar
     4     4     5   ar
     5     5     6   ar
     6     6     7   ar
     7     7     8   ar
     8     2     9    1
     9     9    10    1
    10    10    11    2
    11    11    12    1
    12    12    13   ar
    13    13    14   ar
    14    14    15   ar
    15    15    16   ar
    16    10    17    1
    17    17    18    2
    18    18    19    1
    19    19    20   ar
    20    20    21   ar
    21    21    22   ar
    22    22    23   ar
    23    23    24   ar
    24    18     2    1
    25    24    19   ar
    26     8     3   ar
    27    16    12   ar
    28     1    25    1
    29     4    26    1
    30     5    27    1
    31     6    28    1
    32     7    29    1
    33     8    30    1
    34     9    31    1
    35     9    32    1
    36    13    33    1
    37    16    34    1
    38    17    35    1
    39    20    36    1
    40    21    37    1
    41    22    38    1
    42    23    39    1
    43    24    40    1
