@<TRIPOS>MOLECULE
*****
 38 39 0 0 0
SMALL
GASTEIGER

@<TRIPOS>ATOM
      1 O          -2.7900   -0.0313   -2.1257 O.3     1  UNL1       -0.5060
      2 C          -3.5472   -0.0040   -0.9858 C.ar    1  UNL1        0.1289
      3 C          -2.9945    0.0646    0.2964 C.ar    1  UNL1        0.0364
      4 C          -1.5384    0.1135    0.5280 C.2     1  UNL1        0.0605
      5 N          -0.6935    0.0951   -0.4561 N.2     1  UNL1       -0.1570
      6 N           0.6087    0.1506    0.0266 N.2     1  UNL1       -0.1570
      7 C           1.4715    0.1336   -0.9392 C.2     1  UNL1        0.0605
      8 C           2.9387    0.1814   -0.7493 C.ar    1  UNL1        0.0364
      9 C           3.5768    0.2512    0.4949 C.ar    1  UNL1        0.1289
     10 O           2.8531    0.2803    1.6540 O.3     1  UNL1       -0.5060
     11 C           4.9760    0.2927    0.5753 C.ar    1  UNL1        0.0222
     12 C           5.7468    0.2647   -0.5884 C.ar    1  UNL1        0.1236
     13 O           7.1123    0.2993   -0.6522 O.3     1  UNL1       -0.4950
     14 C           7.8182    0.3712    0.5801 C.3     1  UNL1        0.0788
     15 C           5.1106    0.1950   -1.8290 C.ar    1  UNL1       -0.0191
     16 C           3.7169    0.1535   -1.9134 C.ar    1  UNL1       -0.0461
     17 C          -3.8382    0.0885    1.4111 C.ar    1  UNL1       -0.0461
     18 C          -5.2277    0.0439    1.2415 C.ar    1  UNL1       -0.0191
     19 C          -5.7784   -0.0246   -0.0405 C.ar    1  UNL1        0.1236
     20 O          -7.1123   -0.0730   -0.3390 O.3     1  UNL1       -0.4950
     21 C          -8.0210   -0.0524    0.7542 C.3     1  UNL1        0.0788
     22 C          -4.9300   -0.0482   -1.1513 C.ar    1  UNL1        0.0222
     23 H          -1.8476    0.0055   -1.8505 H       1  UNL1        0.2922
     24 H          -1.1915    0.1668    1.5764 H       1  UNL1        0.0855
     25 H           1.1193    0.0803   -1.9861 H       1  UNL1        0.0855
     26 H           3.4452    0.3280    2.4197 H       1  UNL1        0.2922
     27 H           5.4469    0.3466    1.5497 H       1  UNL1        0.0691
     28 H           7.5752    1.2919    1.1206 H       1  UNL1        0.0660
     29 H           8.8882    0.3914    0.3519 H       1  UNL1        0.0660
     30 H           7.6255   -0.5127    1.1970 H       1  UNL1        0.0660
     31 H           5.7063    0.1729   -2.7391 H       1  UNL1        0.0654
     32 H           3.2524    0.0995   -2.8951 H       1  UNL1        0.0626
     33 H          -3.4285    0.1416    2.4168 H       1  UNL1        0.0626
     34 H          -5.8508    0.0642    2.1298 H       1  UNL1        0.0654
     35 H          -7.9315    0.8782    1.3243 H       1  UNL1        0.0660
     36 H          -7.8826   -0.9266    1.3989 H       1  UNL1        0.0660
     37 H          -9.0356   -0.0967    0.3466 H       1  UNL1        0.0660
     38 H          -5.3493   -0.1013   -2.1528 H       1  UNL1        0.0691
@<TRIPOS>BOND
     1     1     2    1
     2     2     3   ar
     3     3     4    1
     4     4     5    2
     5     5     6    1
     6     6     7    2
     7     7     8    1
     8     8     9   ar
     9     9    10    1
    10     9    11   ar
    11    11    12   ar
    12    12    13    1
    13    13    14    1
    14    12    15   ar
    15    15    16   ar
    16     3    17   ar
    17    17    18   ar
    18    18    19   ar
    19    19    20    1
    20    20    21    1
    21    19    22   ar
    22    22     2   ar
    23    16     8   ar
    24     1    23    1
    25     4    24    1
    26     7    25    1
    27    10    26    1
    28    11    27    1
    29    14    28    1
    30    14    29    1
    31    14    30    1
    32    15    31    1
    33    16    32    1
    34    17    33    1
    35    18    34    1
    36    21    35    1
    37    21    36    1
    38    21    37    1
    39    22    38    1
