@<TRIPOS>MOLECULE
*****
 32 36 0 0 0
SMALL
GASTEIGER

@<TRIPOS>ATOM
      1 SI         -1.1627    2.2381    0.6710 Si      1  UNL1        0.0000
      2 C           0.0708    0.8276    0.1624 C.ar    1  UNL1        0.0000
      3 C           1.4604    0.8641    0.1125 C.ar    1  UNL1        0.0000
      4 C           2.1516   -0.2911   -0.2840 C.ar    1  UNL1        0.0000
      5 C           1.4263   -1.4541   -0.6307 C.ar    1  UNL1        0.0000
      6 C           0.0256   -1.4905   -0.5827 C.ar    1  UNL1        0.0000
      7 C          -0.6485   -0.3510   -0.1849 C.ar    1  UNL1        0.0000
      8 C          -2.0866   -0.1612   -0.0622 C.ar    1  UNL1        0.0000
      9 N          -3.1386   -0.9957   -0.2882 N.ar    1  UNL1        0.0000
     10 C          -4.2958   -0.2864   -0.0095 C.ar    1  UNL1        0.0000
     11 C          -5.6960   -0.5267   -0.0279 C.ar    1  UNL1        0.0000
     12 C          -6.3704    0.6095    0.3680 C.ar    1  UNL1        0.0000
     13 S          -5.3531    1.9435    0.7561 S.2     1  UNL1        0.0000
     14 C          -3.9627    0.9872    0.3880 C.ar    1  UNL1        0.0000
     15 C          -2.5669    1.0634    0.3532 C.ar    1  UNL1        0.0000
     16 C           3.6148   -0.2808   -0.3411 C.ar    1  UNL1        0.0000
     17 C           4.4952    0.7172   -0.7276 C.ar    1  UNL1        0.0000
     18 C           5.8149    0.2251   -0.5850 C.ar    1  UNL1        0.0000
     19 C           5.7191   -1.0588   -0.1035 C.ar    1  UNL1        0.0000
     20 N           4.3895   -1.3542    0.0449 N.ar    1  UNL1        0.0000
     21 H          -1.0730    3.3756   -0.2814 H       1  UNL1        0.0000
     22 H          -0.9700    2.6066    2.0979 H       1  UNL1        0.0000
     23 H           2.0004    1.7659    0.3867 H       1  UNL1        0.0000
     24 H           1.9527   -2.3446   -0.9669 H       1  UNL1        0.0000
     25 H          -0.5052   -2.3941   -0.8601 H       1  UNL1        0.0000
     26 H          -3.1266   -1.9575   -0.6011 H       1  UNL1        0.0000
     27 H          -6.1762   -1.4549   -0.3078 H       1  UNL1        0.0000
     28 H          -7.4410    0.7354    0.4539 H       1  UNL1        0.0000
     29 H           4.2141    1.6986   -1.0878 H       1  UNL1        0.0000
     30 H           6.7332    0.7531   -0.8071 H       1  UNL1        0.0000
     31 H           6.4793   -1.7850    0.1505 H       1  UNL1        0.0000
     32 H           4.0254   -2.2245    0.4078 H       1  UNL1        0.0000
@<TRIPOS>BOND
     1     1     2    1
     2     2     3   ar
     3     3     4   ar
     4     4     5   ar
     5     5     6   ar
     6     6     7   ar
     7     7     8    1
     8     8     9   ar
     9     9    10   ar
    10    10    11   ar
    11    11    12   ar
    12    12    13   ar
    13    13    14   ar
    14    14    15   ar
    15     4    16    1
    16    16    17   ar
    17    17    18   ar
    18    18    19   ar
    19    19    20   ar
    20    15     1    1
    21    20    16   ar
    22     7     2   ar
    23    15     8   ar
    24    14    10   ar
    25     1    21    1
    26     1    22    1
    27     3    23    1
    28     5    24    1
    29     6    25    1
    30     9    26    1
    31    11    27    1
    32    12    28    1
    33    17    29    1
    34    18    30    1
    35    19    31    1
    36    20    32    1
