@<TRIPOS>MOLECULE
*****
 30 31 0 0 0
SMALL
GASTEIGER

@<TRIPOS>ATOM
      1 O          -2.5398   -1.9162   -0.4474 O.3     1  UNL1       -0.5061
      2 C          -3.3928   -0.8483   -0.4925 C.ar    1  UNL1        0.1256
      3 C          -2.9674    0.4801   -0.3605 C.ar    1  UNL1        0.0376
      4 C          -1.5501    0.8382   -0.1599 C.2     1  UNL1        0.0606
      5 N          -0.6235   -0.0677   -0.0959 N.2     1  UNL1       -0.1570
      6 N           0.6235    0.5074    0.0959 N.2     1  UNL1       -0.1570
      7 C           1.5501   -0.3985    0.1599 C.2     1  UNL1        0.0606
      8 C           2.9674   -0.0404    0.3605 C.ar    1  UNL1        0.0376
      9 C           3.3928    1.2880    0.4925 C.ar    1  UNL1        0.1256
     10 O           2.5398    2.3559    0.4473 O.3     1  UNL1       -0.5061
     11 C           4.7418    1.5801    0.6805 C.ar    1  UNL1       -0.0182
     12 C           5.6752    0.5443    0.7377 C.ar    1  UNL1       -0.0399
     13 C           5.2513   -0.7781    0.6062 C.ar    1  UNL1        0.0418
     14 CL          6.4046   -2.0533    0.6772 Cl      1  UNL1       -0.0835
     15 C           3.9022   -1.0791    0.4177 C.ar    1  UNL1       -0.0312
     16 C          -3.9022    1.5188   -0.4177 C.ar    1  UNL1       -0.0312
     17 C          -5.2513    1.2178   -0.6062 C.ar    1  UNL1        0.0418
     18 CL         -6.4046    2.4930   -0.6771 Cl      1  UNL1       -0.0835
     19 C          -5.6752   -0.1045   -0.7378 C.ar    1  UNL1       -0.0399
     20 C          -4.7418   -1.1404   -0.6806 C.ar    1  UNL1       -0.0182
     21 H          -1.6328   -1.5659   -0.3119 H       1  UNL1        0.2922
     22 H          -1.3058    1.9124   -0.0657 H       1  UNL1        0.0855
     23 H           1.3057   -1.4726    0.0657 H       1  UNL1        0.0855
     24 H           1.6328    2.0056    0.3119 H       1  UNL1        0.2922
     25 H           5.0640    2.6135    0.7821 H       1  UNL1        0.0655
     26 H           6.7271    0.7756    0.8846 H       1  UNL1        0.0633
     27 H           3.5901   -2.1151    0.3172 H       1  UNL1        0.0640
     28 H          -3.5901    2.5548   -0.3171 H       1  UNL1        0.0640
     29 H          -6.7271   -0.3359   -0.8846 H       1  UNL1        0.0633
     30 H          -5.0639   -2.1737   -0.7822 H       1  UNL1        0.0655
@<TRIPOS>BOND
     1     1     2    1
     2     2     3   ar
     3     3     4    1
     4     4     5    2
     5     5     6    1
     6     6     7    2
     7     7     8    1
     8     8     9   ar
     9     9    10    1
    10     9    11   ar
    11    11    12   ar
    12    12    13   ar
    13    13    14    1
    14    13    15   ar
    15     3    16   ar
    16    16    17   ar
    17    17    18    1
    18    17    19   ar
    19    19    20   ar
    20    20     2   ar
    21    15     8   ar
    22     1    21    1
    23     4    22    1
    24     7    23    1
    25    10    24    1
    26    11    25    1
    27    12    26    1
    28    15    27    1
    29    16    28    1
    30    19    29    1
    31    20    30    1
