@<TRIPOS>MOLECULE
*****
 30 31 0 0 0
SMALL
GASTEIGER

@<TRIPOS>ATOM
      1 O           2.6007    1.7334   -1.3333 O.3     1  UNL1       -0.5061
      2 C           3.4767    0.9213   -0.6654 C.ar    1  UNL1        0.1255
      3 C           3.0664   -0.1253    0.1690 C.ar    1  UNL1        0.0362
      4 C           1.6433   -0.4398    0.3974 C.2     1  UNL1        0.0605
      5 N           0.6972    0.2441   -0.1687 N.2     1  UNL1       -0.1570
      6 N          -0.5455   -0.2514    0.2083 N.2     1  UNL1       -0.1570
      7 C          -1.5083    0.4157   -0.3445 C.2     1  UNL1        0.0605
      8 C          -2.9466    0.1319   -0.1410 C.ar    1  UNL1        0.0362
      9 C          -3.4445   -0.8922    0.6738 C.ar    1  UNL1        0.1255
     10 O          -2.6049   -1.7243    1.3571 O.3     1  UNL1       -0.5061
     11 C          -4.8246   -1.0799    0.8010 C.ar    1  UNL1       -0.0195
     12 C          -5.7116   -0.2475    0.1166 C.ar    1  UNL1       -0.0583
     13 C          -5.2242    0.7734   -0.6957 C.ar    1  UNL1       -0.0609
     14 C          -3.8470    0.9635   -0.8249 C.ar    1  UNL1       -0.0496
     15 C           4.0246   -0.9123    0.8181 C.ar    1  UNL1       -0.0496
     16 C           5.3838   -0.6500    0.6305 C.ar    1  UNL1       -0.0609
     17 C           5.7862    0.3949   -0.2026 C.ar    1  UNL1       -0.0583
     18 C           4.8324    1.1808   -0.8508 C.ar    1  UNL1       -0.0195
     19 H           1.6946    1.4298   -1.1048 H       1  UNL1        0.2922
     20 H           1.4110   -1.2842    1.0723 H       1  UNL1        0.0855
     21 H          -1.2712    1.2595   -1.0188 H       1  UNL1        0.0855
     22 H          -3.1199   -2.3685    1.8663 H       1  UNL1        0.2922
     23 H          -5.2264   -1.8698    1.4292 H       1  UNL1        0.0654
     24 H          -6.7841   -0.3960    0.2176 H       1  UNL1        0.0619
     25 H          -5.9153    1.4219   -1.2289 H       1  UNL1        0.0618
     26 H          -3.4859    1.7660   -1.4639 H       1  UNL1        0.0625
     27 H           3.7256   -1.7293    1.4698 H       1  UNL1        0.0625
     28 H           6.1302   -1.2600    1.1337 H       1  UNL1        0.0618
     29 H           6.8441    0.5990   -0.3486 H       1  UNL1        0.0619
     30 H           5.1433    1.9949   -1.4999 H       1  UNL1        0.0654
@<TRIPOS>BOND
     1     1     2    1
     2     2     3   ar
     3     3     4    1
     4     4     5    2
     5     5     6    1
     6     6     7    2
     7     7     8    1
     8     8     9   ar
     9     9    10    1
    10     9    11   ar
    11    11    12   ar
    12    12    13   ar
    13    13    14   ar
    14     3    15   ar
    15    15    16   ar
    16    16    17   ar
    17    17    18   ar
    18    18     2   ar
    19    14     8   ar
    20     1    19    1
    21     4    20    1
    22     7    21    1
    23    10    22    1
    24    11    23    1
    25    12    24    1
    26    13    25    1
    27    14    26    1
    28    15    27    1
    29    16    28    1
    30    17    29    1
    31    18    30    1
