@<TRIPOS>MOLECULE
*****
 28 30 0 0 0
SMALL
GASTEIGER

@<TRIPOS>ATOM
      1 O          -0.4251   -2.6541   -0.8303 O.3     1  UNL1       -0.5007
      2 C           0.2329   -1.5025   -0.4373 C.ar    1  UNL1        0.2081
      3 C          -0.3795   -0.3477   -0.1156 C.ar    1  UNL1        0.1806
      4 C          -1.8478   -0.1741   -0.1386 C.ar    1  UNL1        0.0211
      5 C          -2.4066    0.9650   -0.7395 C.ar    1  UNL1       -0.0510
      6 C          -3.7898    1.1631   -0.7510 C.ar    1  UNL1       -0.0611
      7 C          -4.6328    0.2278   -0.1556 C.ar    1  UNL1       -0.0617
      8 C          -4.0940   -0.9035    0.4528 C.ar    1  UNL1       -0.0611
      9 C          -2.7105   -1.1012    0.4643 C.ar    1  UNL1       -0.0510
     10 O           0.2953    0.8117    0.2507 O.2     1  UNL1       -0.4509
     11 C           1.6644    0.7888    0.3130 C.ar    1  UNL1        0.1395
     12 C           2.3045    1.9663    0.6985 C.ar    1  UNL1       -0.0186
     13 C           3.6985    2.0064    0.7791 C.ar    1  UNL1       -0.0582
     14 C           4.4521    0.8708    0.4745 C.ar    1  UNL1       -0.0609
     15 C           3.8130   -0.3080    0.0887 C.ar    1  UNL1       -0.0473
     16 C           2.4177   -0.3405    0.0108 C.ar    1  UNL1        0.0677
     17 C           1.7142   -1.5623   -0.3917 C.ar    1  UNL1        0.2343
     18 O           2.2918   -2.6044   -0.6853 O.2     1  UNL1       -0.2831
     19 H           0.2891   -3.2998   -1.0189 H       1  UNL1        0.2924
     20 H          -1.7658    1.7071   -1.2108 H       1  UNL1        0.0625
     21 H          -4.2072    2.0474   -1.2253 H       1  UNL1        0.0618
     22 H          -5.7088    0.3801   -0.1651 H       1  UNL1        0.0618
     23 H          -4.7486   -1.6349    0.9195 H       1  UNL1        0.0618
     24 H          -2.3122   -1.9894    0.9499 H       1  UNL1        0.0625
     25 H           1.7207    2.8518    0.9371 H       1  UNL1        0.0654
     26 H           4.1980    2.9245    1.0803 H       1  UNL1        0.0619
     27 H           5.5374    0.9047    0.5380 H       1  UNL1        0.0618
     28 H           4.3989   -1.1932   -0.1489 H       1  UNL1        0.0626
@<TRIPOS>BOND
     1     1     2    1
     2     2     3   ar
     3     3     4    1
     4     4     5   ar
     5     5     6   ar
     6     6     7   ar
     7     7     8   ar
     8     8     9   ar
     9     3    10   ar
    10    10    11   ar
    11    11    12   ar
    12    12    13   ar
    13    13    14   ar
    14    14    15   ar
    15    15    16   ar
    16    16    17   ar
    17    17    18    2
    18    17     2   ar
    19     9     4   ar
    20    16    11   ar
    21     1    19    1
    22     5    20    1
    23     6    21    1
    24     7    22    1
    25     8    23    1
    26     9    24    1
    27    12    25    1
    28    13    26    1
    29    14    27    1
    30    15    28    1
