@<TRIPOS>MOLECULE
*****
 21 22 0 0 0
SMALL
GASTEIGER

@<TRIPOS>ATOM
      1 O           4.3264   -0.2756    0.4859 O.3     1  UNL1       -0.5066
      2 C           2.9831   -0.3211    0.2597 C.ar    1  UNL1        0.1204
      3 C           2.5126   -1.2666   -0.6488 C.ar    1  UNL1       -0.0194
      4 C           1.1436   -1.3567   -0.9190 C.ar    1  UNL1       -0.0476
      5 C           0.2503   -0.4982   -0.2753 C.ar    1  UNL1        0.0186
      6 C           0.7477    0.4367    0.6284 C.ar    1  UNL1        0.1426
      7 O          -0.1226    1.3121    1.3046 O.2     1  UNL1       -0.4215
      8 C          -1.5061    1.2555    1.1322 C.ar    1  UNL1        0.3514
      9 C          -2.0040    0.3043    0.1181 C.ar    1  UNL1        0.1436
     10 C          -3.4265    0.2134   -0.2363 C.2     1  UNL1        0.3438
     11 O          -4.0313    1.4093   -0.2869 O.3     1  UNL1       -0.4770
     12 O          -4.0210   -0.8071   -0.5412 O.2     1  UNL1       -0.2449
     13 C          -1.1797   -0.5353   -0.5293 C.ar    1  UNL1       -0.0301
     14 O          -2.2452    1.9479    1.8223 O.2     1  UNL1       -0.2443
     15 C           2.1084    0.5412    0.9090 C.ar    1  UNL1        0.0229
     16 H           4.5135    0.4203    1.1380 H       1  UNL1        0.2921
     17 H           3.2125   -1.9329   -1.1469 H       1  UNL1        0.0654
     18 H           0.7925   -2.0987   -1.6322 H       1  UNL1        0.0626
     19 H          -4.9624    1.2144   -0.5198 H       1  UNL1        0.2954
     20 H          -1.5500   -1.2438   -1.2657 H       1  UNL1        0.0635
     21 H           2.4583    1.2810    1.6204 H       1  UNL1        0.0691
@<TRIPOS>BOND
     1     1     2    1
     2     2     3   ar
     3     3     4   ar
     4     4     5   ar
     5     5     6   ar
     6     6     7   ar
     7     7     8   ar
     8     8     9   ar
     9     9    10    1
    10    10    11    1
    11    10    12    2
    12     9    13   ar
    13     8    14    2
    14     6    15   ar
    15    15     2   ar
    16    13     5   ar
    17     1    16    1
    18     3    17    1
    19     4    18    1
    20    11    19    1
    21    13    20    1
    22    15    21    1
