@<TRIPOS>MOLECULE
*****
 36 38 0 0 0
SMALL
GASTEIGER

@<TRIPOS>ATOM
      1 O           7.4396   -0.3421   -0.1660 O.3     1  UNL1       -0.5012
      2 C           6.0643   -0.4283   -0.1537 C.ar    1  UNL1        0.1999
      3 C           5.4145   -1.5913   -0.0678 C.ar    1  UNL1        0.1376
      4 O           4.0489   -1.7530   -0.0503 O.2     1  UNL1       -0.4590
      5 C           3.2715   -0.6213   -0.1285 C.ar    1  UNL1        0.1392
      6 C           1.8865   -0.7981   -0.1100 C.ar    1  UNL1       -0.0109
      7 C           1.0179    0.3059   -0.1838 C.ar    1  UNL1       -0.0144
      8 C          -0.4419    0.1217   -0.1640 C.ar    1  UNL1       -0.0177
      9 C          -1.2500    0.8076    0.7469 C.ar    1  UNL1       -0.0523
     10 C          -2.6432    0.6275    0.7639 C.ar    1  UNL1       -0.0401
     11 C          -3.3025   -0.2321   -0.1302 C.ar    1  UNL1        0.0292
     12 N          -4.6892   -0.4207   -0.0991 N.pl3   1  UNL1       -0.3360
     13 C          -5.5178    0.5329    0.6365 C.3     1  UNL1        0.0004
     14 C          -5.3401   -1.0807   -1.2296 C.3     1  UNL1        0.0004
     15 C          -2.4724   -0.9244   -1.0273 C.ar    1  UNL1       -0.0401
     16 C          -1.0783   -0.7517   -1.0503 C.ar    1  UNL1       -0.0523
     17 C           1.5828    1.5919   -0.2769 C.ar    1  UNL1       -0.0531
     18 C           2.9689    1.7737   -0.2963 C.ar    1  UNL1       -0.0467
     19 C           3.8076    0.6617   -0.2215 C.ar    1  UNL1        0.0677
     20 C           5.2704    0.8195   -0.2392 C.ar    1  UNL1        0.2337
     21 O           5.8351    1.9046   -0.3189 O.2     1  UNL1       -0.2832
     22 H           7.6290    0.6182   -0.2347 H       1  UNL1        0.2924
     23 H           5.9170   -2.5468   -0.0014 H       1  UNL1        0.1069
     24 H           1.4828   -1.8052   -0.0247 H       1  UNL1        0.0660
     25 H          -0.8053    1.4841    1.4740 H       1  UNL1        0.0624
     26 H          -3.1960    1.1852    1.5135 H       1  UNL1        0.0636
     27 H          -6.5798    0.2704    0.5709 H       1  UNL1        0.0428
     28 H          -5.2745    0.5288    1.7044 H       1  UNL1        0.0428
     29 H          -5.4028    1.5461    0.2356 H       1  UNL1        0.0428
     30 H          -4.9841   -2.1098   -1.3468 H       1  UNL1        0.0428
     31 H          -6.4228   -1.1545   -1.0773 H       1  UNL1        0.0428
     32 H          -5.1746   -0.5247   -2.1590 H       1  UNL1        0.0428
     33 H          -2.8865   -1.6279   -1.7430 H       1  UNL1        0.0636
     34 H          -0.4986   -1.3098   -1.7827 H       1  UNL1        0.0624
     35 H           0.9380    2.4669   -0.3478 H       1  UNL1        0.0624
     36 H           3.3855    2.7756   -0.3722 H       1  UNL1        0.0626
@<TRIPOS>BOND
     1     1     2    1
     2     2     3   ar
     3     3     4   ar
     4     4     5   ar
     5     5     6   ar
     6     6     7   ar
     7     7     8    1
     8     8     9   ar
     9     9    10   ar
    10    10    11   ar
    11    11    12    1
    12    12    13    1
    13    12    14    1
    14    11    15   ar
    15    15    16   ar
    16     7    17   ar
    17    17    18   ar
    18    18    19   ar
    19    19    20   ar
    20    20    21    2
    21    20     2   ar
    22    19     5   ar
    23    16     8   ar
    24     1    22    1
    25     3    23    1
    26     6    24    1
    27     9    25    1
    28    10    26    1
    29    13    27    1
    30    13    28    1
    31    13    29    1
    32    14    30    1
    33    14    31    1
    34    14    32    1
    35    15    33    1
    36    16    34    1
    37    17    35    1
    38    18    36    1
