@<TRIPOS>MOLECULE
*****
 37 39 0 0 0
SMALL
GASTEIGER

@<TRIPOS>ATOM
      1 O           7.0231    0.5877    0.2241 O.3     1  UNL1       -0.5068
      2 C           5.7245    0.4363   -0.1635 C.ar    1  UNL1        0.1169
      3 C           4.7768    1.2780    0.4048 C.ar    1  UNL1       -0.0199
      4 C           3.4364    1.1573    0.0361 C.ar    1  UNL1       -0.0539
      5 C           3.0398    0.1956   -0.9060 C.ar    1  UNL1       -0.0334
      6 C           1.5859    0.0656   -1.2945 C.3     1  UNL1        0.0214
      7 N           0.8079   -0.5054   -0.1945 N.3     1  UNL1       -0.3084
      8 C          -0.5906   -0.7087   -0.5913 C.3     1  UNL1        0.0365
      9 C          -1.4665   -1.1906    0.5858 C.3     1  UNL1        0.1464
     10 C          -1.6665   -0.1416    1.6795 C.3     1  UNL1        0.1277
     11 O          -2.3953    0.9953    1.2035 O.3     1  UNL1       -0.4846
     12 C          -3.5047    0.6107    0.4976 C.ar    1  UNL1        0.1621
     13 C          -4.4861    1.5797    0.2965 C.ar    1  UNL1       -0.0163
     14 C          -5.6494    1.2571   -0.4040 C.ar    1  UNL1       -0.0581
     15 C          -5.8267   -0.0328   -0.9066 C.ar    1  UNL1       -0.0581
     16 C          -4.8361   -0.9983   -0.7185 C.ar    1  UNL1       -0.0163
     17 C          -3.6695   -0.6733   -0.0278 C.ar    1  UNL1        0.1625
     18 O          -2.7312   -1.6651    0.0876 O.3     1  UNL1       -0.4805
     19 C           4.0115   -0.6495   -1.4634 C.ar    1  UNL1       -0.0539
     20 C           5.3541   -0.5286   -1.0948 C.ar    1  UNL1       -0.0199
     21 H           7.5654   -0.0604   -0.2538 H       1  UNL1        0.2921
     22 H           5.0780    2.0237    1.1346 H       1  UNL1        0.0654
     23 H           2.6948    1.8113    0.4905 H       1  UNL1        0.0622
     24 H           1.2061    1.0601   -1.5599 H       1  UNL1        0.0473
     25 H           1.4998   -0.5612   -2.1909 H       1  UNL1        0.0473
     26 H           1.2268   -1.3982    0.0660 H       1  UNL1        0.1224
     27 H          -1.0048    0.2184   -1.0058 H       1  UNL1        0.0461
     28 H          -0.6413   -1.4532   -1.3964 H       1  UNL1        0.0461
     29 H          -0.9825   -2.0655    1.0378 H       1  UNL1        0.0780
     30 H          -0.7060    0.2152    2.0652 H       1  UNL1        0.0734
     31 H          -2.2202   -0.5682    2.5262 H       1  UNL1        0.0734
     32 H          -4.3483    2.5815    0.6937 H       1  UNL1        0.0655
     33 H          -6.4181    2.0106   -0.5546 H       1  UNL1        0.0619
     34 H          -6.7342   -0.2851   -1.4491 H       1  UNL1        0.0619
     35 H          -4.9695   -1.9996   -1.1180 H       1  UNL1        0.0655
     36 H           3.7280   -1.4075   -2.1899 H       1  UNL1        0.0622
     37 H           6.0887   -1.1911   -1.5408 H       1  UNL1        0.0654
@<TRIPOS>BOND
     1     1     2    1
     2     2     3   ar
     3     3     4   ar
     4     4     5   ar
     5     5     6    1
     6     6     7    1
     7     7     8    1
     8     8     9    1
     9     9    10    1
    10    10    11    1
    11    11    12    1
    12    12    13   ar
    13    13    14   ar
    14    14    15   ar
    15    15    16   ar
    16    16    17   ar
    17    17    18    1
    18     5    19   ar
    19    19    20   ar
    20    20     2   ar
    21    18     9    1
    22    17    12   ar
    23     1    21    1
    24     3    22    1
    25     4    23    1
    26     6    24    1
    27     6    25    1
    28     7    26    1
    29     8    27    1
    30     8    28    1
    31     9    29    1
    32    10    30    1
    33    10    31    1
    34    13    32    1
    35    14    33    1
    36    15    34    1
    37    16    35    1
    38    19    36    1
    39    20    37    1
