@<TRIPOS>MOLECULE
*****
 42 45 0 0 0
SMALL
GASTEIGER

@<TRIPOS>ATOM
      1 O           4.4883   -1.3683   -0.6152 O.3     1  UNL1       -0.3932
      2 C           4.7172   -0.5977    0.5650 C.3     1  UNL1        0.0625
      3 C           3.5061   -0.7071    1.5065 C.3     1  UNL1        0.0470
      4 C           3.7558    0.0377    2.8148 C.3     1  UNL1       -0.0443
      5 N           2.2695   -0.2580    0.8630 N.am    1  UNL1       -0.2869
      6 C           1.0745   -1.1368    0.8069 C.3     1  UNL1        0.0432
      7 C           0.1199   -0.2198    0.1575 C.ar    1  UNL1        0.0085
      8 C           0.6997    0.9966   -0.0746 C.ar    1  UNL1        0.1144
      9 N          -0.1869    1.8350   -0.6609 N.ar    1  UNL1       -0.3112
     10 C          -0.0310    3.1555   -1.0690 C.ar    1  UNL1        0.0117
     11 C          -1.0620    3.7941   -1.6476 C.ar    1  UNL1       -0.0277
     12 C          -2.3266    3.0860   -1.8435 C.ar    1  UNL1        0.0551
     13 C          -3.4092    3.7730   -2.4701 C.1     1  UNL1        0.0993
     14 N          -4.2890    4.3344   -2.9777 N.1     1  UNL1       -0.1909
     15 C          -2.4717    1.8031   -1.4430 C.ar    1  UNL1       -0.0198
     16 C          -1.3849    1.1154   -0.8133 C.ar    1  UNL1        0.0560
     17 C          -1.2082   -0.1683   -0.2928 C.ar    1  UNL1        0.0128
     18 C          -2.2232   -1.2013   -0.2677 C.ar    1  UNL1       -0.0155
     19 C          -2.0015   -2.4143   -0.9297 C.ar    1  UNL1       -0.0540
     20 C          -2.9706   -3.4191   -0.8976 C.ar    1  UNL1       -0.0612
     21 C          -4.1614   -3.2186   -0.2003 C.ar    1  UNL1       -0.0617
     22 C          -4.3853   -2.0149    0.4668 C.ar    1  UNL1       -0.0612
     23 C          -3.4181   -1.0084    0.4355 C.ar    1  UNL1       -0.0540
     24 C           2.0497    1.0325    0.3638 C.2     1  UNL1        0.2643
     25 O           2.8354    1.9616    0.3104 O.2     1  UNL1       -0.2683
     26 H           3.7262   -0.9534   -1.0583 H       1  UNL1        0.2095
     27 H           5.6141   -0.9961    1.0503 H       1  UNL1        0.0575
     28 H           4.9273    0.4341    0.2675 H       1  UNL1        0.0575
     29 H           3.3596   -1.7707    1.7347 H       1  UNL1        0.0520
     30 H           2.8927   -0.0533    3.4832 H       1  UNL1        0.0248
     31 H           3.9331    1.1049    2.6464 H       1  UNL1        0.0248
     32 H           4.6296   -0.3710    3.3329 H       1  UNL1        0.0248
     33 H           0.7784   -1.4066    1.8238 H       1  UNL1        0.0515
     34 H           1.3055   -2.0172    0.2023 H       1  UNL1        0.0515
     35 H           0.9343    3.6192   -0.8991 H       1  UNL1        0.0813
     36 H          -0.9712    4.8249   -1.9770 H       1  UNL1        0.0645
     37 H          -3.4078    1.2711   -1.5953 H       1  UNL1        0.0651
     38 H          -1.0818   -2.5807   -1.4852 H       1  UNL1        0.0624
     39 H          -2.7982   -4.3571   -1.4194 H       1  UNL1        0.0618
     40 H          -4.9157   -4.0012   -0.1766 H       1  UNL1        0.0618
     41 H          -5.3122   -1.8605    1.0134 H       1  UNL1        0.0618
     42 H          -3.6003   -0.0785    0.9693 H       1  UNL1        0.0624
@<TRIPOS>BOND
     1     1     2    1
     2     2     3    1
     3     3     4    1
     4     3     5    1
     5     5     6    1
     6     6     7    1
     7     7     8   ar
     8     8     9   ar
     9     9    10   ar
    10    10    11   ar
    11    11    12   ar
    12    12    13    1
    13    13    14    3
    14    12    15   ar
    15    15    16   ar
    16    16    17   ar
    17    17    18    1
    18    18    19   ar
    19    19    20   ar
    20    20    21   ar
    21    21    22   ar
    22    22    23   ar
    23     8    24    1
    24    24    25    2
    25    24     5   am
    26    17     7   ar
    27    16     9   ar
    28    23    18   ar
    29     1    26    1
    30     2    27    1
    31     2    28    1
    32     3    29    1
    33     4    30    1
    34     4    31    1
    35     4    32    1
    36     6    33    1
    37     6    34    1
    38    10    35    1
    39    11    36    1
    40    15    37    1
    41    19    38    1
    42    20    39    1
    43    21    40    1
    44    22    41    1
    45    23    42    1
