@<TRIPOS>MOLECULE
*****
 39 42 0 0 0
SMALL
GASTEIGER

@<TRIPOS>ATOM
      1 O           3.5342    0.3176    4.6200 O.3     1  UNL1       -0.3932
      2 C           2.7748   -0.2297    3.5442 C.3     1  UNL1        0.0625
      3 C           2.5173    0.8272    2.4543 C.3     1  UNL1        0.0470
      4 C           3.8151    1.2635    1.7723 C.3     1  UNL1       -0.0443
      5 N           1.5349    0.3783    1.4729 N.am    1  UNL1       -0.2869
      6 C           0.3382    1.1929    1.1543 C.3     1  UNL1        0.0432
      7 C          -0.2661    0.3595    0.0939 C.ar    1  UNL1        0.0090
      8 C           0.5081   -0.7408   -0.1396 C.ar    1  UNL1        0.1144
      9 N          -0.0410   -1.5021   -1.1111 N.ar    1  UNL1       -0.3112
     10 C           0.4201   -2.6989   -1.6510 C.ar    1  UNL1        0.0117
     11 C          -0.2836   -3.3030   -2.6209 C.ar    1  UNL1       -0.0277
     12 C          -1.5209   -2.6877   -3.0878 C.ar    1  UNL1        0.0551
     13 C          -2.2629   -3.3376   -4.1199 C.1     1  UNL1        0.0993
     14 N          -2.8693   -3.8620   -4.9589 N.1     1  UNL1       -0.1909
     15 C          -1.9632   -1.5244   -2.5586 C.ar    1  UNL1       -0.0198
     16 C          -1.2289   -0.8596   -1.5216 C.ar    1  UNL1        0.0565
     17 C          -1.3778    0.3124   -0.7696 C.ar    1  UNL1        0.0194
     18 C          -2.5276    1.3933   -0.8322 C.ar    1  UNL1        0.0217
     19 C          -3.6301    1.3838   -1.6601 C.ar    1  UNL1       -0.0469
     20 C          -4.4801    2.5154   -1.4622 C.ar    1  UNL1       -0.0541
     21 C          -3.9995    3.3564   -0.4870 C.ar    1  UNL1       -0.0237
     22 S          -2.5379    2.7823    0.1793 S.2     1  UNL1       -0.0966
     23 C           1.6595   -0.7742    0.6912 C.2     1  UNL1        0.2643
     24 O           2.5481   -1.6074    0.7171 O.2     1  UNL1       -0.2683
     25 H           4.4721    0.2610    4.3667 H       1  UNL1        0.2095
     26 H           3.3010   -1.1086    3.1576 H       1  UNL1        0.0575
     27 H           1.8224   -0.5742    3.9613 H       1  UNL1        0.0575
     28 H           2.0979    1.7148    2.9459 H       1  UNL1        0.0520
     29 H           4.3243    0.4184    1.2973 H       1  UNL1        0.0248
     30 H           4.5069    1.7140    2.4911 H       1  UNL1        0.0248
     31 H           3.6113    2.0066    0.9935 H       1  UNL1        0.0248
     32 H           0.6620    2.1725    0.7934 H       1  UNL1        0.0515
     33 H          -0.2843    1.2708    2.0490 H       1  UNL1        0.0515
     34 H           1.3474   -3.0998   -1.2565 H       1  UNL1        0.0813
     35 H           0.0512   -4.2375   -3.0611 H       1  UNL1        0.0645
     36 H          -2.8851   -1.0935   -2.9266 H       1  UNL1        0.0651
     37 H          -3.8551    0.6212   -2.3870 H       1  UNL1        0.0629
     38 H          -5.3968    2.6982   -2.0100 H       1  UNL1        0.0623
     39 H          -4.4366    4.2805   -0.1336 H       1  UNL1        0.0693
@<TRIPOS>BOND
     1     1     2    1
     2     2     3    1
     3     3     4    1
     4     3     5    1
     5     5     6    1
     6     6     7    1
     7     7     8   ar
     8     8     9   ar
     9     9    10   ar
    10    10    11   ar
    11    11    12   ar
    12    12    13    1
    13    13    14    3
    14    12    15   ar
    15    15    16   ar
    16    16    17   ar
    17    17    18    1
    18    18    19   ar
    19    19    20   ar
    20    20    21   ar
    21    21    22   ar
    22     8    23    1
    23    23    24    2
    24    23     5   am
    25    17     7   ar
    26    16     9   ar
    27    22    18   ar
    28     1    25    1
    29     2    26    1
    30     2    27    1
    31     3    28    1
    32     4    29    1
    33     4    30    1
    34     4    31    1
    35     6    32    1
    36     6    33    1
    37    10    34    1
    38    11    35    1
    39    15    36    1
    40    19    37    1
    41    20    38    1
    42    21    39    1
