@<TRIPOS>MOLECULE
*****
 43 46 0 0 0
SMALL
GASTEIGER

@<TRIPOS>ATOM
      1 O           6.1342   -0.8210    1.2579 O.3     1  UNL1       -0.3932
      2 C           4.7141   -0.9391    1.2029 C.3     1  UNL1        0.0625
      3 C           4.1510   -0.2719   -0.0656 C.3     1  UNL1        0.0470
      4 C           4.6078   -0.9939   -1.3344 C.3     1  UNL1       -0.0443
      5 N           2.6973   -0.1521   -0.0258 N.am    1  UNL1       -0.2869
      6 C           2.0266    1.1524   -0.2418 C.3     1  UNL1        0.0432
      7 C           0.6126    0.7292   -0.1766 C.ar    1  UNL1        0.0090
      8 C           0.5324   -0.6189    0.0258 C.ar    1  UNL1        0.1144
      9 N          -0.7605   -1.0072    0.0814 N.ar    1  UNL1       -0.3112
     10 C          -1.2835   -2.2821    0.2696 C.ar    1  UNL1        0.0112
     11 C          -2.6138   -2.4583    0.2954 C.ar    1  UNL1       -0.0347
     12 C          -3.4860   -1.3003    0.1257 C.ar    1  UNL1        0.0205
     13 C          -4.9887   -1.4134    0.1485 C.2     1  UNL1        0.1602
     14 C          -5.6061   -2.7617    0.4212 C.3     1  UNL1       -0.0014
     15 O          -5.7056   -0.4313   -0.0513 O.2     1  UNL1       -0.2924
     16 C          -2.9671   -0.0636   -0.0578 C.ar    1  UNL1       -0.0267
     17 C          -1.5496    0.1477   -0.0912 C.ar    1  UNL1        0.0560
     18 C          -0.6955    1.2448   -0.2571 C.ar    1  UNL1        0.0193
     19 C          -1.0635    2.7629   -0.4899 C.ar    1  UNL1        0.0217
     20 C          -2.3283    3.3043   -0.5800 C.ar    1  UNL1       -0.0469
     21 C          -2.3111    4.7171   -0.7942 C.ar    1  UNL1       -0.0541
     22 C          -1.0307    5.2124   -0.8618 C.ar    1  UNL1       -0.0237
     23 S           0.1347    3.9815   -0.6692 S.2     1  UNL1       -0.0966
     24 C           1.8129   -1.2260    0.1162 C.2     1  UNL1        0.2643
     25 O           2.0811   -2.4038    0.2768 O.2     1  UNL1       -0.2683
     26 H           6.5030   -1.5465    0.7245 H       1  UNL1        0.2095
     27 H           4.3123   -0.4442    2.0937 H       1  UNL1        0.0575
     28 H           4.4500   -1.9996    1.2693 H       1  UNL1        0.0575
     29 H           4.5563    0.7474   -0.1115 H       1  UNL1        0.0520
     30 H           5.6983   -0.9770   -1.4277 H       1  UNL1        0.0248
     31 H           4.1887   -0.5126   -2.2249 H       1  UNL1        0.0248
     32 H           4.2841   -2.0400   -1.3411 H       1  UNL1        0.0248
     33 H           2.3107    1.5386   -1.2240 H       1  UNL1        0.0515
     34 H           2.3110    1.8332    0.5642 H       1  UNL1        0.0515
     35 H          -0.5773   -3.0962    0.3890 H       1  UNL1        0.0813
     36 H          -3.0279   -3.4491    0.4388 H       1  UNL1        0.0639
     37 H          -5.3502   -3.4615   -0.3783 H       1  UNL1        0.0309
     38 H          -5.2755   -3.1399    1.3920 H       1  UNL1        0.0309
     39 H          -6.6955   -2.6605    0.4515 H       1  UNL1        0.0309
     40 H          -3.6331    0.7803   -0.1792 H       1  UNL1        0.0645
     41 H          -3.2491    2.7493   -0.5026 H       1  UNL1        0.0629
     42 H          -3.1970    5.3327   -0.8929 H       1  UNL1        0.0623
     43 H          -0.7238    6.2379   -1.0155 H       1  UNL1        0.0693
@<TRIPOS>BOND
     1     1     2    1
     2     2     3    1
     3     3     4    1
     4     3     5    1
     5     5     6    1
     6     6     7    1
     7     7     8   ar
     8     8     9   ar
     9     9    10   ar
    10    10    11   ar
    11    11    12   ar
    12    12    13    1
    13    13    14    1
    14    13    15    2
    15    12    16   ar
    16    16    17   ar
    17    17    18   ar
    18    18    19    1
    19    19    20   ar
    20    20    21   ar
    21    21    22   ar
    22    22    23   ar
    23     8    24    1
    24    24    25    2
    25    24     5   am
    26    18     7   ar
    27    17     9   ar
    28    23    19   ar
    29     1    26    1
    30     2    27    1
    31     2    28    1
    32     3    29    1
    33     4    30    1
    34     4    31    1
    35     4    32    1
    36     6    33    1
    37     6    34    1
    38    10    35    1
    39    11    36    1
    40    14    37    1
    41    14    38    1
    42    14    39    1
    43    16    40    1
    44    20    41    1
    45    21    42    1
    46    22    43    1
