@<TRIPOS>MOLECULE
*****
 44 47 0 0 0
SMALL
GASTEIGER

@<TRIPOS>ATOM
      1 O          -5.8951   -1.0433   -0.6153 O.3     1  UNL1       -0.3932
      2 C          -5.7158    0.3295   -0.9622 C.3     1  UNL1        0.0625
      3 C          -4.7309    1.0549   -0.0254 C.3     1  UNL1        0.0470
      4 C          -5.1395    0.9329    1.4441 C.3     1  UNL1       -0.0443
      5 N          -3.3449    0.6259   -0.2051 N.am    1  UNL1       -0.2869
      6 C          -2.9570   -0.8001   -0.3741 C.3     1  UNL1        0.0429
      7 C          -1.4859   -0.6747   -0.2901 C.ar    1  UNL1        0.0037
      8 C          -1.1280    0.6250   -0.0583 C.ar    1  UNL1        0.1140
      9 N           0.2183    0.7331    0.0273 N.ar    1  UNL1       -0.3116
     10 C           1.0137    1.8493    0.2556 C.ar    1  UNL1        0.0111
     11 C           2.3484    1.7083    0.2973 C.ar    1  UNL1       -0.0374
     12 C           2.9433    0.3840    0.1022 C.ar    1  UNL1       -0.0145
     13 C           4.4022    0.1760    0.1324 C.ar    1  UNL1       -0.0178
     14 C           5.0182   -0.3752    1.2632 C.ar    1  UNL1       -0.0540
     15 C           6.4014   -0.5625    1.2897 C.ar    1  UNL1       -0.0612
     16 C           7.1761   -0.1980    0.1889 C.ar    1  UNL1       -0.0617
     17 C           6.5703    0.3552   -0.9387 C.ar    1  UNL1       -0.0612
     18 C           5.1872    0.5437   -0.9673 C.ar    1  UNL1       -0.0540
     19 C           2.1564   -0.6953   -0.1203 C.ar    1  UNL1       -0.0298
     20 C           0.7344   -0.5566   -0.1650 C.ar    1  UNL1        0.0506
     21 C          -0.3166   -1.4536   -0.3658 C.ar    1  UNL1       -0.0198
     22 C          -0.2201   -2.9146   -0.6061 C.3     1  UNL1       -0.0374
     23 C          -2.2579    1.4796    0.0349 C.2     1  UNL1        0.2643
     24 O          -2.2886    2.6733    0.2823 O.2     1  UNL1       -0.2683
     25 H          -6.4618   -1.0740    0.1751 H       1  UNL1        0.2095
     26 H          -6.6981    0.8137   -0.9356 H       1  UNL1        0.0575
     27 H          -5.3547    0.3667   -1.9953 H       1  UNL1        0.0575
     28 H          -4.7612    2.1211   -0.2841 H       1  UNL1        0.0520
     29 H          -4.4911    1.5461    2.0796 H       1  UNL1        0.0248
     30 H          -6.1705    1.2711    1.5905 H       1  UNL1        0.0248
     31 H          -5.0622   -0.0989    1.8027 H       1  UNL1        0.0248
     32 H          -3.2911   -1.1586   -1.3503 H       1  UNL1        0.0515
     33 H          -3.3662   -1.3929    0.4476 H       1  UNL1        0.0515
     34 H           0.5121    2.7996    0.3930 H       1  UNL1        0.0813
     35 H           3.0020    2.5556    0.4761 H       1  UNL1        0.0638
     36 H           4.4230   -0.6573    2.1288 H       1  UNL1        0.0624
     37 H           6.8741   -0.9906    2.1698 H       1  UNL1        0.0618
     38 H           8.2531   -0.3436    0.2105 H       1  UNL1        0.0618
     39 H           7.1744    0.6405   -1.7960 H       1  UNL1        0.0618
     40 H           4.7239    0.9754   -1.8516 H       1  UNL1        0.0624
     41 H           2.5852   -1.6818   -0.2727 H       1  UNL1        0.0644
     42 H           0.3564   -3.1162   -1.5145 H       1  UNL1        0.0278
     43 H           0.2740   -3.4095    0.2361 H       1  UNL1        0.0278
     44 H          -1.2112   -3.3633   -0.7279 H       1  UNL1        0.0278
@<TRIPOS>BOND
     1     1     2    1
     2     2     3    1
     3     3     4    1
     4     3     5    1
     5     5     6    1
     6     6     7    1
     7     7     8   ar
     8     8     9   ar
     9     9    10   ar
    10    10    11   ar
    11    11    12   ar
    12    12    13    1
    13    13    14   ar
    14    14    15   ar
    15    15    16   ar
    16    16    17   ar
    17    17    18   ar
    18    12    19   ar
    19    19    20   ar
    20    20    21   ar
    21    21    22    1
    22     8    23    1
    23    23    24    2
    24    23     5   am
    25    21     7   ar
    26    20     9   ar
    27    18    13   ar
    28     1    25    1
    29     2    26    1
    30     2    27    1
    31     3    28    1
    32     4    29    1
    33     4    30    1
    34     4    31    1
    35     6    32    1
    36     6    33    1
    37    10    34    1
    38    11    35    1
    39    14    36    1
    40    15    37    1
    41    16    38    1
    42    17    39    1
    43    18    40    1
    44    19    41    1
    45    22    42    1
    46    22    43    1
    47    22    44    1
