@<TRIPOS>MOLECULE
*****
 38 44 0 0 0
SMALL
GASTEIGER

@<TRIPOS>ATOM
      1 SI         -0.9884   -2.0881   -0.7965 Si      1  UNL1        0.0000
      2 C           0.7245   -1.2534   -0.5112 C.ar    1  UNL1        0.0000
      3 C           2.0682   -1.5982   -0.6908 C.ar    1  UNL1        0.0000
      4 C           2.9014   -0.5491   -0.2927 C.ar    1  UNL1        0.0000
      5 S           1.9640    0.8069    0.2826 S.2     1  UNL1        0.0000
      6 C           0.5216    0.0066    0.0032 C.ar    1  UNL1        0.0000
      7 C          -0.8367    0.3841    0.1964 C.ar    1  UNL1        0.0000
      8 N          -1.4347    1.5160    0.6709 N.ar    1  UNL1        0.0000
      9 C          -2.8163    1.3398    0.6412 C.ar    1  UNL1        0.0000
     10 C          -3.8780    2.2053    1.0221 C.ar    1  UNL1        0.0000
     11 C          -5.2274    1.7991    0.8984 C.ar    1  UNL1        0.0000
     12 C          -5.3581    0.5142    0.3840 C.ar    1  UNL1        0.0000
     13 C          -6.5476   -0.1370    0.1566 C.ar    1  UNL1        0.0000
     14 N          -6.2476   -1.3894   -0.3577 N.ar    1  UNL1        0.0000
     15 C          -4.8785   -1.5537   -0.4648 C.ar    1  UNL1        0.0000
     16 C          -4.3546   -0.3829   -0.0080 C.ar    1  UNL1        0.0000
     17 C          -3.0130    0.0540    0.1283 C.ar    1  UNL1        0.0000
     18 C          -1.8103   -0.5374   -0.1462 C.ar    1  UNL1        0.0000
     19 C           4.3451   -0.5276   -0.3279 C.ar    1  UNL1        0.0000
     20 S           5.3103   -1.8686   -0.9002 S.2     1  UNL1        0.0000
     21 C           6.8219   -1.0637   -0.6204 C.ar    1  UNL1        0.0000
     22 C           6.5438    0.1556   -0.1182 C.ar    1  UNL1        0.0000
     23 C           7.2138    1.3043    0.3265 C.ar    1  UNL1        0.0000
     24 C           6.1967    2.1837    0.7135 C.ar    1  UNL1        0.0000
     25 O           4.9201    1.6818    0.5492 O.2     1  UNL1        0.0000
     26 C           5.2089    0.4486    0.0410 C.ar    1  UNL1        0.0000
     27 H          -1.1686   -3.2839    0.0680 H       1  UNL1        0.0000
     28 H          -1.2379   -2.3538   -2.2377 H       1  UNL1        0.0000
     29 H           2.4248   -2.5428   -1.0827 H       1  UNL1        0.0000
     30 H          -0.9575    2.3466    0.9918 H       1  UNL1        0.0000
     31 H          -3.6555    3.1947    1.4147 H       1  UNL1        0.0000
     32 H          -6.0544    2.4365    1.1802 H       1  UNL1        0.0000
     33 H          -7.5771    0.1580    0.3063 H       1  UNL1        0.0000
     34 H          -6.9352   -2.0842   -0.6176 H       1  UNL1        0.0000
     35 H          -4.4523   -2.4692   -0.8469 H       1  UNL1        0.0000
     36 H           7.7671   -1.5385   -0.8414 H       1  UNL1        0.0000
     37 H           8.2754    1.4992    0.3730 H       1  UNL1        0.0000
     38 H           6.2219    3.1868    1.1190 H       1  UNL1        0.0000
@<TRIPOS>BOND
     1     1     2    1
     2     2     3   ar
     3     3     4   ar
     4     4     5   ar
     5     5     6   ar
     6     6     7    1
     7     7     8   ar
     8     8     9   ar
     9     9    10   ar
    10    10    11   ar
    11    11    12   ar
    12    12    13   ar
    13    13    14   ar
    14    14    15   ar
    15    15    16   ar
    16    16    17   ar
    17    17    18   ar
    18     4    19    1
    19    19    20   ar
    20    20    21   ar
    21    21    22   ar
    22    22    23   ar
    23    23    24   ar
    24    24    25   ar
    25    25    26   ar
    26    18     1    1
    27    26    19   ar
    28     6     2   ar
    29    18     7   ar
    30    26    22   ar
    31    17     9   ar
    32    16    12   ar
    33     1    27    1
    34     1    28    1
    35     3    29    1
    36     8    30    1
    37    10    31    1
    38    11    32    1
    39    13    33    1
    40    14    34    1
    41    15    35    1
    42    21    36    1
    43    23    37    1
    44    24    38    1
