@<TRIPOS>MOLECULE
*****
 45 48 0 0 0
SMALL
GASTEIGER

@<TRIPOS>ATOM
      1 O           4.6675   -1.6300    0.7996 O.3     1  UNL1       -0.3932
      2 C           4.7529   -0.2423    0.5119 C.3     1  UNL1        0.0625
      3 C           4.1083    0.1156   -0.8431 C.3     1  UNL1        0.0470
      4 C           4.7500   -0.6466   -2.0034 C.3     1  UNL1       -0.0443
      5 N           2.6488   -0.0101   -0.8155 N.am    1  UNL1       -0.2869
      6 C           1.8099    1.1265   -0.3581 C.3     1  UNL1        0.0432
      7 C           0.4935    0.4728   -0.2919 C.ar    1  UNL1        0.0085
      8 C           0.6001   -0.8504   -0.6143 C.ar    1  UNL1        0.1144
      9 N          -0.6119   -1.4506   -0.5405 N.ar    1  UNL1       -0.3110
     10 C          -0.9683   -2.7736   -0.7876 C.ar    1  UNL1        0.0140
     11 C          -2.2522   -3.1462   -0.6555 C.ar    1  UNL1       -0.0034
     12 C          -3.2342   -2.1532   -0.2474 C.ar    1  UNL1        0.1235
     13 O          -4.5368   -2.5945   -0.1849 O.3     1  UNL1       -0.4950
     14 C          -4.8476   -3.0588    1.1284 C.3     1  UNL1        0.0788
     15 C          -2.8981   -0.8643   -0.0379 C.ar    1  UNL1        0.0046
     16 C          -1.5315   -0.4572   -0.1548 C.ar    1  UNL1        0.0583
     17 C          -0.8479    0.7481    0.0145 C.ar    1  UNL1        0.0129
     18 C          -1.4571    2.0009    0.4117 C.ar    1  UNL1       -0.0155
     19 C          -1.3690    3.1173   -0.4279 C.ar    1  UNL1       -0.0540
     20 C          -1.9389    4.3327   -0.0431 C.ar    1  UNL1       -0.0612
     21 C          -2.5935    4.4392    1.1838 C.ar    1  UNL1       -0.0617
     22 C          -2.6803    3.3320    2.0270 C.ar    1  UNL1       -0.0612
     23 C          -2.1122    2.1154    1.6434 C.ar    1  UNL1       -0.0540
     24 C           1.9376   -1.2190   -0.9284 C.2     1  UNL1        0.2643
     25 O           2.3397   -2.3260   -1.2365 O.2     1  UNL1       -0.2683
     26 H           5.0325   -1.7729    1.6883 H       1  UNL1        0.2095
     27 H           4.2641    0.3056    1.3243 H       1  UNL1        0.0575
     28 H           5.8129    0.0331    0.5027 H       1  UNL1        0.0575
     29 H           4.3038    1.1809   -1.0241 H       1  UNL1        0.0520
     30 H           4.2669   -0.3880   -2.9520 H       1  UNL1        0.0248
     31 H           4.6837   -1.7314   -1.8787 H       1  UNL1        0.0248
     32 H           5.8121   -0.3914   -2.0853 H       1  UNL1        0.0248
     33 H           2.1567    1.4639    0.6221 H       1  UNL1        0.0515
     34 H           1.8599    1.9272   -1.1000 H       1  UNL1        0.0515
     35 H          -0.1803   -3.4534   -1.0897 H       1  UNL1        0.0814
     36 H          -2.5763   -4.1609   -0.8555 H       1  UNL1        0.0669
     37 H          -4.2155   -3.9092    1.4075 H       1  UNL1        0.0660
     38 H          -5.8890   -3.3938    1.1293 H       1  UNL1        0.0660
     39 H          -4.7475   -2.2535    1.8648 H       1  UNL1        0.0660
     40 H          -3.6578   -0.1322    0.2141 H       1  UNL1        0.0675
     41 H          -0.8715    3.0434   -1.3922 H       1  UNL1        0.0624
     42 H          -1.8767    5.1943   -0.7030 H       1  UNL1        0.0618
     43 H          -3.0387    5.3852    1.4817 H       1  UNL1        0.0618
     44 H          -3.1896    3.4152    2.9837 H       1  UNL1        0.0618
     45 H          -2.1784    1.2605    2.3124 H       1  UNL1        0.0624
@<TRIPOS>BOND
     1     1     2    1
     2     2     3    1
     3     3     4    1
     4     3     5    1
     5     5     6    1
     6     6     7    1
     7     7     8   ar
     8     8     9   ar
     9     9    10   ar
    10    10    11   ar
    11    11    12   ar
    12    12    13    1
    13    13    14    1
    14    12    15   ar
    15    15    16   ar
    16    16    17   ar
    17    17    18    1
    18    18    19   ar
    19    19    20   ar
    20    20    21   ar
    21    21    22   ar
    22    22    23   ar
    23     8    24    1
    24    24    25    2
    25    24     5   am
    26    17     7   ar
    27    16     9   ar
    28    23    18   ar
    29     1    26    1
    30     2    27    1
    31     2    28    1
    32     3    29    1
    33     4    30    1
    34     4    31    1
    35     4    32    1
    36     6    33    1
    37     6    34    1
    38    10    35    1
    39    11    36    1
    40    14    37    1
    41    14    38    1
    42    14    39    1
    43    15    40    1
    44    19    41    1
    45    20    42    1
    46    21    43    1
    47    22    44    1
    48    23    45    1
