@<TRIPOS>MOLECULE
*****
 42 45 0 0 0
SMALL
GASTEIGER

@<TRIPOS>ATOM
      1 O          -6.1117    0.2241    0.9472 O.3     1  UNL1       -0.3932
      2 C          -4.8110   -0.2965    0.6776 C.3     1  UNL1        0.0625
      3 C          -3.9327    0.7844    0.0216 C.3     1  UNL1        0.0470
      4 C          -4.3941    1.0784   -1.4066 C.3     1  UNL1       -0.0443
      5 N          -2.5115    0.4496    0.0553 N.am    1  UNL1       -0.2869
      6 C          -1.4943    1.4751    0.3894 C.3     1  UNL1        0.0432
      7 C          -0.2581    0.7086    0.1328 C.ar    1  UNL1        0.0090
      8 C          -0.5650   -0.5412   -0.3242 C.ar    1  UNL1        0.1144
      9 N           0.5651   -1.2409   -0.5701 N.ar    1  UNL1       -0.3110
     10 C           0.7022   -2.5412   -1.0505 C.ar    1  UNL1        0.0140
     11 C           1.9290   -3.0579   -1.2184 C.ar    1  UNL1       -0.0034
     12 C           3.0797   -2.2414   -0.8765 C.ar    1  UNL1        0.1235
     13 O           4.3120   -2.8101   -1.1112 O.3     1  UNL1       -0.4950
     14 C           4.7311   -3.5905    0.0081 C.3     1  UNL1        0.0788
     15 C           2.9506   -0.9699   -0.4471 C.ar    1  UNL1        0.0046
     16 C           1.6524   -0.3979   -0.2491 C.ar    1  UNL1        0.0588
     17 C           1.1436    0.8293    0.1921 C.ar    1  UNL1        0.0194
     18 C           1.9290    2.1139    0.6663 C.ar    1  UNL1        0.0217
     19 C           3.2975    2.2664    0.7369 C.ar    1  UNL1       -0.0469
     20 C           3.6864    3.5578    1.2086 C.ar    1  UNL1       -0.0541
     21 C           2.6001    4.3536    1.4847 C.ar    1  UNL1       -0.0237
     22 S           1.1291    3.5460    1.1764 S.2     1  UNL1       -0.0966
     23 C          -1.9668   -0.7497   -0.4176 C.2     1  UNL1        0.2643
     24 O          -2.5584   -1.7380   -0.8153 O.2     1  UNL1       -0.2683
     25 H          -6.6346   -0.5122    1.3098 H       1  UNL1        0.2095
     26 H          -4.3758   -0.6165    1.6305 H       1  UNL1        0.0575
     27 H          -4.9200   -1.1749    0.0338 H       1  UNL1        0.0575
     28 H          -4.0544    1.7074    0.6036 H       1  UNL1        0.0520
     29 H          -5.4376    1.4088   -1.4237 H       1  UNL1        0.0248
     30 H          -4.3077    0.1929   -2.0455 H       1  UNL1        0.0248
     31 H          -3.7834    1.8691   -1.8560 H       1  UNL1        0.0248
     32 H          -1.6168    1.7646    1.4357 H       1  UNL1        0.0515
     33 H          -1.6103    2.3262   -0.2866 H       1  UNL1        0.0515
     34 H          -0.2052   -3.0869   -1.2812 H       1  UNL1        0.0814
     35 H           2.0810   -4.0573   -1.6086 H       1  UNL1        0.0669
     36 H           4.8052   -2.9745    0.9111 H       1  UNL1        0.0660
     37 H           4.0543   -4.4347    0.1780 H       1  UNL1        0.0660
     38 H           5.7248   -3.9907   -0.2140 H       1  UNL1        0.0660
     39 H           3.8460   -0.3969   -0.2566 H       1  UNL1        0.0675
     40 H           4.0187    1.5112    0.4709 H       1  UNL1        0.0629
     41 H           4.7122    3.8814    1.3361 H       1  UNL1        0.0623
     42 H           2.5992    5.3707    1.8523 H       1  UNL1        0.0693
@<TRIPOS>BOND
     1     1     2    1
     2     2     3    1
     3     3     4    1
     4     3     5    1
     5     5     6    1
     6     6     7    1
     7     7     8   ar
     8     8     9   ar
     9     9    10   ar
    10    10    11   ar
    11    11    12   ar
    12    12    13    1
    13    13    14    1
    14    12    15   ar
    15    15    16   ar
    16    16    17   ar
    17    17    18    1
    18    18    19   ar
    19    19    20   ar
    20    20    21   ar
    21    21    22   ar
    22     8    23    1
    23    23    24    2
    24    23     5   am
    25    17     7   ar
    26    16     9   ar
    27    22    18   ar
    28     1    25    1
    29     2    26    1
    30     2    27    1
    31     3    28    1
    32     4    29    1
    33     4    30    1
    34     4    31    1
    35     6    32    1
    36     6    33    1
    37    10    34    1
    38    11    35    1
    39    14    36    1
    40    14    37    1
    41    14    38    1
    42    15    39    1
    43    19    40    1
    44    20    41    1
    45    21    42    1
