@<TRIPOS>MOLECULE
*****
 45 48 0 0 0
SMALL
GASTEIGER

@<TRIPOS>ATOM
      1 O           5.6076    1.3707   -1.6898 O.3     1  UNL1       -0.3932
      2 C           4.5617    0.4488   -1.3808 C.3     1  UNL1        0.0625
      3 C           3.6848    0.9834   -0.2322 C.3     1  UNL1        0.0470
      4 C           4.4232    0.9084    1.1046 C.3     1  UNL1       -0.0443
      5 N           2.3882    0.3196   -0.1567 N.am    1  UNL1       -0.2869
      6 C           1.1435    1.0936    0.0837 C.3     1  UNL1        0.0432
      7 C           0.1826   -0.0135    0.2330 C.ar    1  UNL1        0.0086
      8 C           0.8163   -1.2204    0.1343 C.ar    1  UNL1        0.1144
      9 N          -0.0745   -2.2302    0.2764 N.ar    1  UNL1       -0.3113
     10 C           0.1280   -3.6069    0.2462 C.ar    1  UNL1        0.0105
     11 C          -0.9213   -4.4309    0.3967 C.ar    1  UNL1       -0.0451
     12 C          -2.2445   -3.8580    0.5786 C.ar    1  UNL1       -0.0584
     13 C          -2.4446   -2.5261    0.6105 C.ar    1  UNL1       -0.0372
     14 C          -1.3352   -1.6346    0.4676 C.ar    1  UNL1        0.0549
     15 C          -1.1835   -0.2454    0.4592 C.ar    1  UNL1        0.0162
     16 C          -2.2595    0.7150    0.6357 C.ar    1  UNL1        0.0261
     17 C          -2.5206    1.7157   -0.3139 C.ar    1  UNL1        0.1278
     18 O          -1.7719    1.8384   -1.4586 O.3     1  UNL1       -0.4945
     19 C          -2.3497    1.0538   -2.5039 C.3     1  UNL1        0.0788
     20 C          -3.5198    2.6676   -0.0921 C.ar    1  UNL1       -0.0193
     21 C          -4.2919    2.6093    1.0671 C.ar    1  UNL1       -0.0583
     22 C          -4.0539    1.6122    2.0117 C.ar    1  UNL1       -0.0610
     23 C          -3.0393    0.6745    1.8009 C.ar    1  UNL1       -0.0505
     24 C           2.2112   -1.0698   -0.0837 C.2     1  UNL1        0.2643
     25 O           3.0585   -1.9400   -0.1810 O.2     1  UNL1       -0.2683
     26 H           5.2007    2.1286   -2.1432 H       1  UNL1        0.2095
     27 H           5.0260   -0.5076   -1.1213 H       1  UNL1        0.0575
     28 H           3.9702    0.2967   -2.2906 H       1  UNL1        0.0575
     29 H           3.4828    2.0431   -0.4364 H       1  UNL1        0.0520
     30 H           5.3594    1.4748    1.0691 H       1  UNL1        0.0248
     31 H           4.6619   -0.1263    1.3730 H       1  UNL1        0.0248
     32 H           3.8084    1.3237    1.9106 H       1  UNL1        0.0248
     33 H           1.2549    1.6801    0.9993 H       1  UNL1        0.0515
     34 H           0.9492    1.7284   -0.7836 H       1  UNL1        0.0515
     35 H           1.1426   -3.9580    0.0997 H       1  UNL1        0.0813
     36 H          -0.8095   -5.5092    0.3800 H       1  UNL1        0.0632
     37 H          -3.0794   -4.5442    0.6835 H       1  UNL1        0.0619
     38 H          -3.4442   -2.1229    0.7375 H       1  UNL1        0.0638
     39 H          -2.3882   -0.0083   -2.2400 H       1  UNL1        0.0660
     40 H          -3.3506    1.4176   -2.7608 H       1  UNL1        0.0660
     41 H          -1.7146    1.1584   -3.3887 H       1  UNL1        0.0660
     42 H          -3.6936    3.4530   -0.8222 H       1  UNL1        0.0654
     43 H          -5.0726    3.3461    1.2379 H       1  UNL1        0.0619
     44 H          -4.6490    1.5710    2.9208 H       1  UNL1        0.0618
     45 H          -2.8498   -0.0801    2.5616 H       1  UNL1        0.0625
@<TRIPOS>BOND
     1     1     2    1
     2     2     3    1
     3     3     4    1
     4     3     5    1
     5     5     6    1
     6     6     7    1
     7     7     8   ar
     8     8     9   ar
     9     9    10   ar
    10    10    11   ar
    11    11    12   ar
    12    12    13   ar
    13    13    14   ar
    14    14    15   ar
    15    15    16    1
    16    16    17   ar
    17    17    18    1
    18    18    19    1
    19    17    20   ar
    20    20    21   ar
    21    21    22   ar
    22    22    23   ar
    23     8    24    1
    24    24    25    2
    25    24     5   am
    26    15     7   ar
    27    14     9   ar
    28    23    16   ar
    29     1    26    1
    30     2    27    1
    31     2    28    1
    32     3    29    1
    33     4    30    1
    34     4    31    1
    35     4    32    1
    36     6    33    1
    37     6    34    1
    38    10    35    1
    39    11    36    1
    40    12    37    1
    41    13    38    1
    42    19    39    1
    43    19    40    1
    44    19    41    1
    45    20    42    1
    46    21    43    1
    47    22    44    1
    48    23    45    1
