@<TRIPOS>MOLECULE
*****
 41 44 0 0 0
SMALL
GASTEIGER

@<TRIPOS>ATOM
      1 O           4.8511   -0.0603    0.9764 O.3     1  UNL1       -0.3932
      2 C           4.2767    1.1337    0.4483 C.3     1  UNL1        0.0625
      3 C           3.5365    0.8926   -0.8853 C.3     1  UNL1        0.0470
      4 C           3.4310    2.1888   -1.6868 C.3     1  UNL1       -0.0443
      5 N           2.2281    0.2655   -0.6616 N.am    1  UNL1       -0.2869
      6 C           0.9669    1.0409   -0.5101 C.3     1  UNL1        0.0432
      7 C           0.0461   -0.0411   -0.1151 C.ar    1  UNL1        0.0085
      8 C           0.7174   -1.2254    0.0083 C.ar    1  UNL1        0.1144
      9 N          -0.1304   -2.2081    0.3952 N.ar    1  UNL1       -0.3113
     10 C           0.1206   -3.5537    0.6477 C.ar    1  UNL1        0.0105
     11 C          -0.8927   -4.3551    1.0138 C.ar    1  UNL1       -0.0451
     12 C          -2.2282   -3.7928    1.1279 C.ar    1  UNL1       -0.0584
     13 C          -2.4745   -2.4904    0.8866 C.ar    1  UNL1       -0.0372
     14 C          -1.4035   -1.6209    0.5103 C.ar    1  UNL1        0.0548
     15 C          -1.3024   -0.2621    0.2052 C.ar    1  UNL1        0.0128
     16 C          -2.4035    0.6791    0.2244 C.ar    1  UNL1       -0.0155
     17 C          -3.1151    0.9183    1.4058 C.ar    1  UNL1       -0.0540
     18 C          -4.1625    1.8414    1.4208 C.ar    1  UNL1       -0.0612
     19 C          -4.5012    2.5314    0.2574 C.ar    1  UNL1       -0.0617
     20 C          -3.7933    2.3010   -0.9217 C.ar    1  UNL1       -0.0612
     21 C          -2.7446    1.3790   -0.9386 C.ar    1  UNL1       -0.0540
     22 C           2.0974   -1.0789   -0.2809 C.2     1  UNL1        0.2643
     23 O           2.9963   -1.8971   -0.1744 O.2     1  UNL1       -0.2683
     24 H           4.3080   -0.8248    0.6928 H       1  UNL1        0.2095
     25 H           3.6030    1.5499    1.2048 H       1  UNL1        0.0575
     26 H           5.1033    1.8377    0.3084 H       1  UNL1        0.0575
     27 H           4.1219    0.1700   -1.4686 H       1  UNL1        0.0520
     28 H           4.4265    2.5775   -1.9263 H       1  UNL1        0.0248
     29 H           2.9018    2.0214   -2.6311 H       1  UNL1        0.0248
     30 H           2.8938    2.9652   -1.1316 H       1  UNL1        0.0248
     31 H           0.7019    1.4965   -1.4668 H       1  UNL1        0.0515
     32 H           1.0936    1.7874    0.2783 H       1  UNL1        0.0515
     33 H           1.1408   -3.9008    0.5356 H       1  UNL1        0.0813
     34 H          -0.7437   -5.4090    1.2205 H       1  UNL1        0.0632
     35 H          -3.0340   -4.4632    1.4113 H       1  UNL1        0.0619
     36 H          -3.4820   -2.0949    0.9686 H       1  UNL1        0.0638
     37 H          -2.8533    0.3927    2.3214 H       1  UNL1        0.0624
     38 H          -4.7122    2.0229    2.3408 H       1  UNL1        0.0618
     39 H          -5.3180    3.2487    0.2697 H       1  UNL1        0.0618
     40 H          -4.0602    2.8364   -1.8291 H       1  UNL1        0.0618
     41 H          -2.2073    1.2006   -1.8668 H       1  UNL1        0.0624
@<TRIPOS>BOND
     1     1     2    1
     2     2     3    1
     3     3     4    1
     4     3     5    1
     5     5     6    1
     6     6     7    1
     7     7     8   ar
     8     8     9   ar
     9     9    10   ar
    10    10    11   ar
    11    11    12   ar
    12    12    13   ar
    13    13    14   ar
    14    14    15   ar
    15    15    16    1
    16    16    17   ar
    17    17    18   ar
    18    18    19   ar
    19    19    20   ar
    20    20    21   ar
    21     8    22    1
    22    22    23    2
    23    22     5   am
    24    15     7   ar
    25    14     9   ar
    26    21    16   ar
    27     1    24    1
    28     2    25    1
    29     2    26    1
    30     3    27    1
    31     4    28    1
    32     4    29    1
    33     4    30    1
    34     6    31    1
    35     6    32    1
    36    10    33    1
    37    11    34    1
    38    12    35    1
    39    13    36    1
    40    17    37    1
    41    18    38    1
    42    19    39    1
    43    20    40    1
    44    21    41    1
