@<TRIPOS>MOLECULE
*****
 38 41 0 0 0
SMALL
GASTEIGER

@<TRIPOS>ATOM
      1 O          -4.8324    0.7203    0.5998 O.3     1  UNL1       -0.3932
      2 C          -4.2126   -0.3457    1.3092 C.3     1  UNL1        0.0625
      3 C          -3.1845   -1.1300    0.4640 C.3     1  UNL1        0.0470
      4 C          -3.7068   -1.4394   -0.9381 C.3     1  UNL1       -0.0443
      5 N          -1.8743   -0.4761    0.3987 N.am    1  UNL1       -0.2869
      6 C          -0.6250   -1.2687    0.5000 C.3     1  UNL1        0.0432
      7 C           0.3781   -0.2271    0.2081 C.ar    1  UNL1        0.0090
      8 C          -0.2445    0.9578   -0.0661 C.ar    1  UNL1        0.1144
      9 N           0.6684    1.9161   -0.3441 N.ar    1  UNL1       -0.3112
     10 C           0.4652    3.2529   -0.6766 C.ar    1  UNL1        0.0105
     11 C           1.5234    4.0421   -0.9150 C.ar    1  UNL1       -0.0451
     12 C           2.8533    3.4714   -0.8168 C.ar    1  UNL1       -0.0584
     13 C           3.0533    2.1782   -0.4956 C.ar    1  UNL1       -0.0372
     14 C           1.9398    1.3155   -0.2376 C.ar    1  UNL1        0.0553
     15 C           1.7679   -0.0301    0.1066 C.ar    1  UNL1        0.0193
     16 C           2.8823   -1.1242    0.3374 C.ar    1  UNL1        0.0217
     17 C           2.6103   -2.4370    0.6739 C.ar    1  UNL1       -0.0469
     18 C           3.7914   -3.2240    0.8258 C.ar    1  UNL1       -0.0541
     19 C           4.9295   -2.4863    0.6001 C.ar    1  UNL1       -0.0237
     20 S           4.5661   -0.8652    0.2102 S.2     1  UNL1       -0.0966
     21 C          -1.6574    0.8513    0.0111 C.2     1  UNL1        0.2643
     22 O          -2.4980    1.7080   -0.2062 O.2     1  UNL1       -0.2683
     23 H          -4.1126    1.3019    0.2693 H       1  UNL1        0.2095
     24 H          -3.7523    0.0593    2.2169 H       1  UNL1        0.0575
     25 H          -5.0160   -1.0227    1.6184 H       1  UNL1        0.0575
     26 H          -3.0129   -2.0787    0.9886 H       1  UNL1        0.0520
     27 H          -3.8385   -0.5302   -1.5342 H       1  UNL1        0.0248
     28 H          -3.0035   -2.0824   -1.4786 H       1  UNL1        0.0248
     29 H          -4.6689   -1.9596   -0.8886 H       1  UNL1        0.0248
     30 H          -0.6394   -2.0594   -0.2548 H       1  UNL1        0.0515
     31 H          -0.5451   -1.6750    1.5112 H       1  UNL1        0.0515
     32 H          -0.5581    3.6052   -0.7299 H       1  UNL1        0.0813
     33 H           1.4126    5.0882   -1.1771 H       1  UNL1        0.0632
     34 H           3.6971    4.1265   -1.0127 H       1  UNL1        0.0619
     35 H           4.0666    1.8020   -0.4356 H       1  UNL1        0.0638
     36 H           1.6175   -2.8397    0.8104 H       1  UNL1        0.0629
     37 H           3.8029   -4.2752    1.0867 H       1  UNL1        0.0623
     38 H           5.9572   -2.8199    0.6449 H       1  UNL1        0.0693
@<TRIPOS>BOND
     1     1     2    1
     2     2     3    1
     3     3     4    1
     4     3     5    1
     5     5     6    1
     6     6     7    1
     7     7     8   ar
     8     8     9   ar
     9     9    10   ar
    10    10    11   ar
    11    11    12   ar
    12    12    13   ar
    13    13    14   ar
    14    14    15   ar
    15    15    16    1
    16    16    17   ar
    17    17    18   ar
    18    18    19   ar
    19    19    20   ar
    20     8    21    1
    21    21    22    2
    22    21     5   am
    23    15     7   ar
    24    14     9   ar
    25    20    16   ar
    26     1    23    1
    27     2    24    1
    28     2    25    1
    29     3    26    1
    30     4    27    1
    31     4    28    1
    32     4    29    1
    33     6    30    1
    34     6    31    1
    35    10    32    1
    36    11    33    1
    37    12    34    1
    38    13    35    1
    39    17    36    1
    40    18    37    1
    41    19    38    1
