@<TRIPOS>MOLECULE
*****
 22 22 0 0 0
SMALL
GASTEIGER

@<TRIPOS>ATOM
      1 O          -0.7526    0.3081    2.2221 O.3     1  UNL1       -0.3925
      2 C          -0.9981   -0.5040    1.0711 C.3     1  UNL1        0.0738
      3 C          -0.2206   -0.0073   -0.1719 C.3     1  UNL1        0.1355
      4 C          -0.7584   -0.7953   -1.3977 C.3     1  UNL1        0.0738
      5 O          -0.5982   -2.2080   -1.2442 O.3     1  UNL1       -0.3925
      6 C          -0.4456    1.5017   -0.4125 C.3     1  UNL1        0.0738
      7 O          -1.8192    1.7982   -0.6563 O.3     1  UNL1       -0.3925
      8 N           1.2180   -0.2279    0.0055 N.ar    1  UNL1       -0.2193
      9 C           2.0283    0.1394    1.0383 C.ar    1  UNL1        0.1389
     10 N           3.2611   -0.2100    0.7522 N.ar    1  UNL1       -0.1169
     11 N           3.2088   -0.7978   -0.4855 N.ar    1  UNL1       -0.0233
     12 N           1.9697   -0.8053   -0.9549 N.ar    1  UNL1       -0.0434
     13 H          -1.3474   -0.0161    2.9244 H       1  UNL1        0.2095
     14 H          -0.7191   -1.5323    1.3286 H       1  UNL1        0.0583
     15 H          -2.0780   -0.4813    0.8852 H       1  UNL1        0.0583
     16 H          -1.8314   -0.6185   -1.5314 H       1  UNL1        0.0583
     17 H          -0.2694   -0.4922   -2.3314 H       1  UNL1        0.0583
     18 H           0.3474   -2.4007   -1.4113 H       1  UNL1        0.2095
     19 H          -0.1182    2.0996    0.4457 H       1  UNL1        0.0583
     20 H           0.1264    1.8422   -1.2842 H       1  UNL1        0.0583
     21 H          -1.8974    2.7673   -0.7266 H       1  UNL1        0.2095
     22 H           1.6940    0.6401    1.9348 H       1  UNL1        0.1063
@<TRIPOS>BOND
     1     1     2    1
     2     2     3    1
     3     3     4    1
     4     4     5    1
     5     3     6    1
     6     6     7    1
     7     3     8    1
     8     8     9   ar
     9     9    10   ar
    10    10    11   ar
    11    11    12   ar
    12    12     8   ar
    13     1    13    1
    14     2    14    1
    15     2    15    1
    16     4    16    1
    17     4    17    1
    18     5    18    1
    19     6    19    1
    20     6    20    1
    21     7    21    1
    22     9    22    1
