@<TRIPOS>MOLECULE
*****
 27 30 0 0 0
SMALL
GASTEIGER

@<TRIPOS>ATOM
      1 O           4.3587    1.1667   -1.3112 O.3     1  UNL1       -0.3904
      2 C           3.8767    1.3206    0.0161 C.3     1  UNL1        0.0693
      3 C           2.5957    0.5468    0.2026 C.ar    1  UNL1       -0.0215
      4 C           1.3983    1.0513   -0.3400 C.ar    1  UNL1       -0.0466
      5 C           0.2523    0.3055   -0.1682 C.ar    1  UNL1        0.0098
      6 C           0.2836   -0.9546    0.5394 C.ar    1  UNL1        0.0269
      7 C           1.4501   -1.4594    1.0652 C.ar    1  UNL1       -0.0501
      8 C           2.6118   -0.6981    0.8883 C.ar    1  UNL1       -0.0557
      9 C          -1.0634   -1.4902    0.5480 C.ar    1  UNL1        0.1463
     10 N          -1.8068   -2.4943    0.9454 N.ar    1  UNL1       -0.2349
     11 C          -3.1009   -2.1594    0.4803 C.ar    1  UNL1        0.0538
     12 C          -3.1069   -0.9485   -0.1945 C.ar    1  UNL1        0.0666
     13 N          -1.8109   -0.5874   -0.1153 N.ar    1  UNL1       -0.2921
     14 C          -1.1486    0.5199   -0.5895 C.ar    1  UNL1        0.0564
     15 C          -1.8967    1.4173   -1.2512 C.ar    1  UNL1       -0.0371
     16 C          -3.3428    1.1121   -1.3930 C.ar    1  UNL1       -0.0578
     17 C          -3.9219   -0.0138   -0.8907 C.ar    1  UNL1       -0.0362
     18 H           3.9664    0.3555   -1.6773 H       1  UNL1        0.2098
     19 H           3.7155    2.3856    0.2130 H       1  UNL1        0.0607
     20 H           4.6515    0.9725    0.7069 H       1  UNL1        0.0607
     21 H           1.3806    1.9940   -0.8779 H       1  UNL1        0.0628
     22 H           1.4667   -2.4076    1.5919 H       1  UNL1        0.0625
     23 H           3.5496   -1.0796    1.2918 H       1  UNL1        0.0621
     24 H          -3.9350   -2.8230    0.6692 H       1  UNL1        0.0851
     25 H          -1.4971    2.3305   -1.6742 H       1  UNL1        0.0638
     26 H          -3.9432    1.8424   -1.9293 H       1  UNL1        0.0619
     27 H          -4.9830   -0.2052   -1.0131 H       1  UNL1        0.0639
@<TRIPOS>BOND
     1     1     2    1
     2     2     3    1
     3     3     4   ar
     4     4     5   ar
     5     5     6   ar
     6     6     7   ar
     7     7     8   ar
     8     6     9   ar
     9     9    10   ar
    10    10    11   ar
    11    11    12   ar
    12    12    13   ar
    13    13    14   ar
    14    14    15   ar
    15    15    16   ar
    16    16    17   ar
    17     8     3   ar
    18    14     5   ar
    19    13     9   ar
    20    17    12   ar
    21     1    18    1
    22     2    19    1
    23     2    20    1
    24     4    21    1
    25     7    22    1
    26     8    23    1
    27    11    24    1
    28    15    25    1
    29    16    26    1
    30    17    27    1
