@<TRIPOS>MOLECULE
*****
 33 36 0 0 0
SMALL
GASTEIGER

@<TRIPOS>ATOM
      1 O           2.9357   -2.9501   -0.5186 O.3     1  UNL1       -0.3872
      2 C           3.5435   -2.3455    0.6209 C.3     1  UNL1        0.1056
      3 C           3.3227   -0.8831    0.5825 C.ar    1  UNL1        0.1802
      4 N           4.2124    0.0751    0.7748 N.ar    1  UNL1       -0.1298
      5 N           3.5612    1.2885    0.6874 N.ar    1  UNL1       -0.1272
      6 C           2.2924    1.0380    0.4484 C.ar    1  UNL1        0.1857
      7 C           1.1698    1.9217    0.2498 C.ar    1  UNL1        0.0302
      8 C           1.3003    3.3123    0.2716 C.ar    1  UNL1       -0.0504
      9 C           0.1839    4.1150    0.0397 C.ar    1  UNL1       -0.0611
     10 C          -1.0563    3.5303   -0.2210 C.ar    1  UNL1       -0.0611
     11 C          -1.1917    2.1390   -0.2428 C.ar    1  UNL1       -0.0518
     12 C          -0.0795    1.3271    0.0072 C.ar    1  UNL1        0.0134
     13 C          -0.1330   -0.1803    0.0039 C.ar    1  UNL1        0.0996
     14 C          -1.4367   -0.8543   -0.1969 C.ar    1  UNL1        0.0027
     15 C          -1.6529   -1.5750   -1.3737 C.ar    1  UNL1       -0.0525
     16 C          -2.8721   -2.2245   -1.5643 C.ar    1  UNL1       -0.0611
     17 C          -3.8591   -2.1611   -0.5784 C.ar    1  UNL1       -0.0617
     18 C          -3.6294   -1.4551    0.6045 C.ar    1  UNL1       -0.0611
     19 C          -2.4127   -0.8028    0.8025 C.ar    1  UNL1       -0.0525
     20 N           0.9032   -0.9623    0.1666 N.ar    1  UNL1       -0.1626
     21 N           2.0900   -0.3162    0.3825 N.ar    1  UNL1       -0.1935
     22 H           1.9826   -2.7382   -0.4669 H       1  UNL1        0.2100
     23 H           3.1157   -2.7870    1.5261 H       1  UNL1        0.0639
     24 H           4.6125   -2.5759    0.5957 H       1  UNL1        0.0639
     25 H           2.2696    3.7705    0.4605 H       1  UNL1        0.0625
     26 H           0.2837    5.1982    0.0528 H       1  UNL1        0.0618
     27 H          -1.9210    4.1624   -0.4133 H       1  UNL1        0.0618
     28 H          -2.1688    1.7198   -0.4653 H       1  UNL1        0.0624
     29 H          -0.8803   -1.6340   -2.1361 H       1  UNL1        0.0624
     30 H          -3.0518   -2.7866   -2.4777 H       1  UNL1        0.0618
     31 H          -4.8070   -2.6733   -0.7283 H       1  UNL1        0.0618
     32 H          -4.3969   -1.4227    1.3742 H       1  UNL1        0.0618
     33 H          -2.2301   -0.2698    1.7317 H       1  UNL1        0.0624
@<TRIPOS>BOND
     1     1     2    1
     2     2     3    1
     3     3     4   ar
     4     4     5   ar
     5     5     6   ar
     6     6     7   ar
     7     7     8   ar
     8     8     9   ar
     9     9    10   ar
    10    10    11   ar
    11    11    12   ar
    12    12    13   ar
    13    13    14    1
    14    14    15   ar
    15    15    16   ar
    16    16    17   ar
    17    17    18   ar
    18    18    19   ar
    19    13    20   ar
    20    20    21   ar
    21    21     3   ar
    22    21     6   ar
    23    12     7   ar
    24    19    14   ar
    25     1    22    1
    26     2    23    1
    27     2    24    1
    28     8    25    1
    29     9    26    1
    30    10    27    1
    31    11    28    1
    32    15    29    1
    33    16    30    1
    34    17    31    1
    35    18    32    1
    36    19    33    1
