@<TRIPOS>MOLECULE
*****
 31 34 0 0 0
SMALL
GASTEIGER

@<TRIPOS>ATOM
      1 O          -5.6043   -0.8882   -0.8178 O.3     1  UNL1       -0.3917
      2 C          -5.1405    0.2681   -0.1236 C.3     1  UNL1        0.0783
      3 C          -3.6213    0.3816   -0.2425 C.3     1  UNL1        0.1126
      4 O          -3.0228   -0.5698    0.6443 O.3     1  UNL1       -0.4897
      5 C          -1.6532   -0.6152    0.6857 C.ar    1  UNL1        0.1213
      6 C          -0.7914    0.1741   -0.0860 C.ar    1  UNL1       -0.0101
      7 C           0.5653   -0.0088    0.0924 C.ar    1  UNL1        0.0130
      8 C           1.0751   -0.9764    1.0386 C.ar    1  UNL1        0.0271
      9 C           2.5228   -0.9248    0.9890 C.ar    1  UNL1        0.1463
     10 N           3.6239   -1.4323    1.4880 N.ar    1  UNL1       -0.2349
     11 C           4.6528   -0.7386    0.8078 C.ar    1  UNL1        0.0538
     12 C           4.1423    0.1816   -0.0944 C.ar    1  UNL1        0.0666
     13 N           2.8150    0.0144    0.0691 N.ar    1  UNL1       -0.2921
     14 C           1.7438    0.6300   -0.5336 C.ar    1  UNL1        0.0565
     15 C           2.0393    1.5653   -1.4507 C.ar    1  UNL1       -0.0371
     16 C           3.4786    1.8251   -1.7057 C.ar    1  UNL1       -0.0578
     17 C           4.4824    1.1676   -1.0612 C.ar    1  UNL1       -0.0362
     18 C           0.2323   -1.7536    1.7958 C.ar    1  UNL1       -0.0470
     19 C          -1.1416   -1.5626    1.6082 C.ar    1  UNL1       -0.0192
     20 H          -6.5367   -1.0143   -0.5726 H       1  UNL1        0.2095
     21 H          -5.4446    0.1841    0.9247 H       1  UNL1        0.0591
     22 H          -5.6217    1.1400   -0.5765 H       1  UNL1        0.0591
     23 H          -3.3194    1.3923    0.0551 H       1  UNL1        0.0720
     24 H          -3.3164    0.1721   -1.2744 H       1  UNL1        0.0720
     25 H          -1.1462    0.9025   -0.8026 H       1  UNL1        0.0661
     26 H           5.6906   -0.9583    1.0232 H       1  UNL1        0.0851
     27 H           1.2891    2.1221   -1.9978 H       1  UNL1        0.0638
     28 H           3.7116    2.5826   -2.4495 H       1  UNL1        0.0619
     29 H           5.5248    1.3825   -1.2727 H       1  UNL1        0.0639
     30 H           0.6132   -2.4813    2.5036 H       1  UNL1        0.0626
     31 H          -1.8424   -2.1619    2.1878 H       1  UNL1        0.0654
@<TRIPOS>BOND
     1     1     2    1
     2     2     3    1
     3     3     4    1
     4     4     5    1
     5     5     6   ar
     6     6     7   ar
     7     7     8   ar
     8     8     9   ar
     9     9    10   ar
    10    10    11   ar
    11    11    12   ar
    12    12    13   ar
    13    13    14   ar
    14    14    15   ar
    15    15    16   ar
    16    16    17   ar
    17     8    18   ar
    18    18    19   ar
    19    19     5   ar
    20    14     7   ar
    21    13     9   ar
    22    17    12   ar
    23     1    20    1
    24     2    21    1
    25     2    22    1
    26     3    23    1
    27     3    24    1
    28     6    25    1
    29    11    26    1
    30    15    27    1
    31    16    28    1
    32    17    29    1
    33    18    30    1
    34    19    31    1
