@<TRIPOS>MOLECULE
*****
 26 27 0 0 0
SMALL
GASTEIGER

@<TRIPOS>ATOM
      1 O          -0.4111    2.8716    1.1660 O.2     1  UNL1       -0.4090
      2 N          -1.3736    2.2135    0.3931 N.2     1  UNL1       -0.0915
      3 C          -0.8895    1.1620   -0.2007 C.2     1  UNL1        0.0872
      4 C          -1.8216    0.3131   -1.0393 C.3     1  UNL1       -0.0067
      5 C          -2.3777   -0.8531   -0.2342 C.3     1  UNL1       -0.0472
      6 C          -1.3281   -1.9167    0.0981 C.3     1  UNL1       -0.0487
      7 C          -0.2341   -1.4334    1.0529 C.3     1  UNL1       -0.0271
      8 C           0.8164   -0.5639    0.4054 C.ar    1  UNL1       -0.0384
      9 C           2.1550   -0.9865    0.3862 C.ar    1  UNL1       -0.0580
     10 C           3.1535   -0.1784   -0.1652 C.ar    1  UNL1       -0.0615
     11 C           2.8331    1.0677   -0.7003 C.ar    1  UNL1       -0.0611
     12 C           1.5111    1.5061   -0.6896 C.ar    1  UNL1       -0.0525
     13 C           0.5130    0.6941   -0.1384 C.ar    1  UNL1        0.0026
     14 H          -0.9247    3.5988    1.5629 H       1  UNL1        0.3278
     15 H          -1.2955   -0.0449   -1.9319 H       1  UNL1        0.0329
     16 H          -2.6468    0.9461   -1.3869 H       1  UNL1        0.0329
     17 H          -2.8376   -0.4891    0.6928 H       1  UNL1        0.0269
     18 H          -3.1750   -1.3287   -0.8180 H       1  UNL1        0.0269
     19 H          -0.8858   -2.3103   -0.8255 H       1  UNL1        0.0268
     20 H          -1.8505   -2.7540    0.5781 H       1  UNL1        0.0268
     21 H          -0.6703   -0.8973    1.9052 H       1  UNL1        0.0313
     22 H           0.2513   -2.3210    1.4791 H       1  UNL1        0.0313
     23 H           2.4347   -1.9497    0.8084 H       1  UNL1        0.0620
     24 H           4.1856   -0.5206   -0.1694 H       1  UNL1        0.0618
     25 H           3.6117    1.6971   -1.1230 H       1  UNL1        0.0618
     26 H           1.2563    2.4775   -1.1058 H       1  UNL1        0.0624
@<TRIPOS>BOND
     1     1     2    1
     2     2     3    2
     3     3     4    1
     4     4     5    1
     5     5     6    1
     6     6     7    1
     7     7     8    1
     8     8     9   ar
     9     9    10   ar
    10    10    11   ar
    11    11    12   ar
    12    12    13   ar
    13    13     3    1
    14    13     8   ar
    15     1    14    1
    16     4    15    1
    17     4    16    1
    18     5    17    1
    19     5    18    1
    20     6    19    1
    21     6    20    1
    22     7    21    1
    23     7    22    1
    24     9    23    1
    25    10    24    1
    26    11    25    1
    27    12    26    1
