@<TRIPOS>MOLECULE
*****
 37 42 0 0 0
SMALL
GASTEIGER

@<TRIPOS>ATOM
      1 SI          3.1109   -1.5205    0.4896 Si      1  UNL1        0.0000
      2 C           4.5043   -0.2730    0.4394 C.ar    1  UNL1        0.0000
      3 C           5.8844   -0.1884    0.5579 C.ar    1  UNL1        0.0000
      4 C           6.1795    1.1553    0.3894 C.ar    1  UNL1        0.0000
      5 N           5.0059    1.8575    0.1754 N.ar    1  UNL1        0.0000
      6 C           3.9683    0.9736    0.2063 C.ar    1  UNL1        0.0000
      7 C           2.5318    1.1193    0.0487 C.ar    1  UNL1        0.0000
      8 C           1.8155    2.2671   -0.1879 C.ar    1  UNL1        0.0000
      9 N           0.4668    2.2817   -0.3187 N.ar    1  UNL1        0.0000
     10 C          -0.2248    1.1295   -0.2151 C.ar    1  UNL1        0.0000
     11 C          -1.6312    1.2411   -0.3666 C.ar    1  UNL1        0.0000
     12 C          -2.6025    0.1938   -0.3128 C.ar    1  UNL1        0.0000
     13 C          -4.0374    0.4149   -0.4895 C.ar    1  UNL1        0.0000
     14 N          -4.4816    1.6647   -0.3056 N.ar    1  UNL1        0.0000
     15 C          -5.7873    1.8332   -0.4972 C.ar    1  UNL1        0.0000
     16 N          -6.6545    0.8909   -0.8524 N.ar    1  UNL1        0.0000
     17 C          -6.1016   -0.3067   -1.0163 C.ar    1  UNL1        0.0000
     18 N          -4.8158   -0.6083   -0.8531 N.ar    1  UNL1        0.0000
     19 C          -1.9521   -1.0215   -0.0654 C.ar    1  UNL1        0.0000
     20 C          -2.5263   -2.2609    0.0931 C.ar    1  UNL1        0.0000
     21 N          -1.5183   -3.1646    0.3237 N.ar    1  UNL1        0.0000
     22 C          -0.3007   -2.5207    0.3321 C.ar    1  UNL1        0.0000
     23 C          -0.5319   -1.1854    0.0989 C.ar    1  UNL1        0.0000
     24 C           0.4250   -0.1271    0.0314 C.ar    1  UNL1        0.0000
     25 C           1.8339   -0.1119    0.1632 C.ar    1  UNL1        0.0000
     26 H           2.9025   -2.1407    1.8245 H       1  UNL1        0.0000
     27 H           3.1348   -2.4989   -0.6292 H       1  UNL1        0.0000
     28 H           6.6016   -0.9779    0.7413 H       1  UNL1        0.0000
     29 H           7.1262    1.6788    0.4026 H       1  UNL1        0.0000
     30 H           4.9410    2.8554    0.0234 H       1  UNL1        0.0000
     31 H           2.2941    3.2351   -0.2845 H       1  UNL1        0.0000
     32 H          -2.0041    2.2529   -0.5517 H       1  UNL1        0.0000
     33 H          -6.1793    2.8338   -0.3508 H       1  UNL1        0.0000
     34 H          -6.7608   -1.1158   -1.3115 H       1  UNL1        0.0000
     35 H          -3.5538   -2.5974    0.0629 H       1  UNL1        0.0000
     36 H          -1.6526   -4.1567    0.4721 H       1  UNL1        0.0000
     37 H           0.5900   -3.1019    0.5101 H       1  UNL1        0.0000
@<TRIPOS>BOND
     1     1     2    1
     2     2     3   ar
     3     3     4   ar
     4     4     5   ar
     5     5     6   ar
     6     6     7    1
     7     7     8   ar
     8     8     9   ar
     9     9    10   ar
    10    10    11   ar
    11    11    12   ar
    12    12    13    1
    13    13    14   ar
    14    14    15   ar
    15    15    16   ar
    16    16    17   ar
    17    17    18   ar
    18    12    19   ar
    19    19    20   ar
    20    20    21   ar
    21    21    22   ar
    22    22    23   ar
    23    23    24   ar
    24    24    25   ar
    25    25     1    1
    26     6     2   ar
    27    25     7   ar
    28    24    10   ar
    29    18    13   ar
    30    23    19   ar
    31     1    26    1
    32     1    27    1
    33     3    28    1
    34     4    29    1
    35     5    30    1
    36     8    31    1
    37    11    32    1
    38    15    33    1
    39    17    34    1
    40    20    35    1
    41    21    36    1
    42    22    37    1
