@<TRIPOS>MOLECULE
*****
 29 31 0 0 0
SMALL
GASTEIGER

@<TRIPOS>ATOM
      1 S          -0.3017   -0.1674   -3.2589 S.2     1  UNL1       -0.0348
      2 C          -0.4229   -0.1640   -1.5788 C.2     1  UNL1        0.0821
      3 C           0.8139   -0.2444   -0.7634 C.ar    1  UNL1        0.0070
      4 C           1.2010   -1.4900   -0.2251 C.ar    1  UNL1       -0.0486
      5 C           2.3553   -1.5860    0.5561 C.ar    1  UNL1       -0.0155
      6 C           3.0807   -0.4319    0.7700 C.ar    1  UNL1        0.1663
      7 C           2.6979    0.7810    0.2408 C.ar    1  UNL1        0.1669
      8 C           1.5669    0.9138   -0.5340 C.ar    1  UNL1       -0.0067
      9 O           3.5515    1.7848    0.5772 O.3     1  UNL1       -0.4526
     10 C           4.5254    1.0644    1.3609 C.3     1  UNL1        0.2332
     11 O           4.2229   -0.3394    1.5024 O.3     1  UNL1       -0.4526
     12 N          -1.6223   -0.0981   -0.8741 N.am    1  UNL1       -0.3237
     13 C          -1.7407   -0.0044    0.5810 C.3     1  UNL1        0.0127
     14 C          -3.1873    0.3986    0.8272 C.3     1  UNL1       -0.0358
     15 C          -3.9204   -0.2474   -0.3378 C.3     1  UNL1       -0.0358
     16 C          -2.9478   -0.0617   -1.4935 C.3     1  UNL1        0.0127
     17 H           0.6031   -2.3769   -0.4218 H       1  UNL1        0.0625
     18 H           2.6741   -2.5328    0.9773 H       1  UNL1        0.0655
     19 H           1.2767    1.8737   -0.9450 H       1  UNL1        0.0662
     20 H           4.5735    1.5143    2.3592 H       1  UNL1        0.1166
     21 H           5.5062    1.1657    0.8818 H       1  UNL1        0.1166
     22 H          -1.0349    0.7207    0.9950 H       1  UNL1        0.0464
     23 H          -1.5319   -0.9947    1.0001 H       1  UNL1        0.0464
     24 H          -3.2886    1.4892    0.7703 H       1  UNL1        0.0281
     25 H          -3.5563    0.0695    1.8023 H       1  UNL1        0.0281
     26 H          -4.8975    0.2027   -0.5330 H       1  UNL1        0.0281
     27 H          -4.0668   -1.3156   -0.1374 H       1  UNL1        0.0281
     28 H          -3.0750    0.9200   -1.9633 H       1  UNL1        0.0464
     29 H          -3.0552   -0.8439   -2.2503 H       1  UNL1        0.0464
@<TRIPOS>BOND
     1     1     2    2
     2     2     3    1
     3     3     4   ar
     4     4     5   ar
     5     5     6   ar
     6     6     7   ar
     7     7     8   ar
     8     7     9    1
     9     9    10    1
    10    10    11    1
    11     2    12    1
    12    12    13    1
    13    13    14    1
    14    14    15    1
    15    15    16    1
    16     8     3   ar
    17    16    12    1
    18    11     6    1
    19     4    17    1
    20     5    18    1
    21     8    19    1
    22    10    20    1
    23    10    21    1
    24    13    22    1
    25    13    23    1
    26    14    24    1
    27    14    25    1
    28    15    26    1
    29    15    27    1
    30    16    28    1
    31    16    29    1
