@<TRIPOS>MOLECULE
*****
 26 27 0 0 0
SMALL
GASTEIGER

@<TRIPOS>ATOM
      1 S           0.5449   -0.9089   -2.5380 S.2     1  UNL1       -0.0347
      2 C           0.6357   -0.3169   -0.9727 C.2     1  UNL1        0.0836
      3 N          -0.3855    0.0263   -0.0943 N.am    1  UNL1       -0.3082
      4 C          -1.7938   -0.1054   -0.1522 C.ar    1  UNL1        0.0327
      5 C          -2.5047   -0.8322   -1.1070 C.ar    1  UNL1       -0.0405
      6 C          -3.9034   -0.9038   -1.0618 C.ar    1  UNL1       -0.0590
      7 C          -4.6100   -0.2545   -0.0540 C.ar    1  UNL1       -0.0476
      8 C          -3.9104    0.4606    0.9103 C.ar    1  UNL1        0.0196
      9 BR         -4.8538    1.3416    2.2924 Br      1  UNL1       -0.0502
     10 C          -2.5161    0.5336    0.8683 C.ar    1  UNL1       -0.0265
     11 C           1.9761   -0.0611   -0.3674 C.ar    1  UNL1        0.0034
     12 C           2.8082    0.9402   -0.8807 C.ar    1  UNL1       -0.0523
     13 C           4.0421    1.1870   -0.2779 C.ar    1  UNL1       -0.0611
     14 C           4.4396    0.4405    0.8330 C.ar    1  UNL1       -0.0617
     15 C           3.6070   -0.5554    1.3464 C.ar    1  UNL1       -0.0611
     16 C           2.3716   -0.8076    0.7497 C.ar    1  UNL1       -0.0523
     17 H          -0.0619    0.4979    0.7461 H       1  UNL1        0.1527
     18 H          -2.0153   -1.3843   -1.8986 H       1  UNL1        0.0636
     19 H          -4.4364   -1.4761   -1.8177 H       1  UNL1        0.0618
     20 H          -5.6943   -0.3168   -0.0285 H       1  UNL1        0.0629
     21 H          -1.9971    1.1034    1.6347 H       1  UNL1        0.0647
     22 H           2.5025    1.5282   -1.7427 H       1  UNL1        0.0624
     23 H           4.6957    1.9598   -0.6754 H       1  UNL1        0.0618
     24 H           5.4043    0.6330    1.2971 H       1  UNL1        0.0618
     25 H           3.9249   -1.1378    2.2078 H       1  UNL1        0.0618
     26 H           1.7302   -1.5912    1.1457 H       1  UNL1        0.0624
@<TRIPOS>BOND
     1     1     2    2
     2     2     3    1
     3     3     4    1
     4     4     5   ar
     5     5     6   ar
     6     6     7   ar
     7     7     8   ar
     8     8     9    1
     9     8    10   ar
    10     2    11    1
    11    11    12   ar
    12    12    13   ar
    13    13    14   ar
    14    14    15   ar
    15    15    16   ar
    16    10     4   ar
    17    16    11   ar
    18     3    17    1
    19     5    18    1
    20     6    19    1
    21     7    20    1
    22    10    21    1
    23    12    22    1
    24    13    23    1
    25    14    24    1
    26    15    25    1
    27    16    26    1
