@<TRIPOS>MOLECULE
*****
 47 49 0 0 0
SMALL
GASTEIGER

@<TRIPOS>ATOM
      1 S          -3.5709    0.6306   -2.9632 S.2     1  UNL1       -0.0184
      2 C          -3.1679    0.0562   -1.4347 C.2     1  UNL1        0.1372
      3 N          -4.0457   -0.5683   -0.5569 N.am    1  UNL1       -0.2967
      4 C          -5.4547   -0.5443   -0.4701 C.ar    1  UNL1        0.0326
      5 C          -6.0703   -1.5997    0.2164 C.ar    1  UNL1       -0.0405
      6 C          -7.4582   -1.6366    0.3760 C.ar    1  UNL1       -0.0600
      7 C          -8.2441   -0.6075   -0.1342 C.ar    1  UNL1       -0.0616
      8 C          -7.6400    0.4603   -0.7929 C.ar    1  UNL1       -0.0600
      9 C          -6.2506    0.4957   -0.9525 C.ar    1  UNL1       -0.0405
     10 N          -1.8552    0.0998   -0.9196 N.am    1  UNL1       -0.3100
     11 C          -1.5775    0.0276    0.5265 C.3     1  UNL1        0.0266
     12 C          -0.3333    0.8412    0.9235 C.3     1  UNL1        0.0150
     13 N           0.8960    0.3720    0.2580 N.3     1  UNL1       -0.2957
     14 C           1.9680    1.3639    0.3912 C.3     1  UNL1        0.0175
     15 C           3.3245    0.7398    0.2193 C.2     1  UNL1       -0.0695
     16 C           4.2847    0.7625    1.1591 C.2     1  UNL1       -0.0573
     17 C           5.6153    0.1644    0.9867 C.ar    1  UNL1       -0.0253
     18 C           6.7301    0.8211    1.5233 C.ar    1  UNL1       -0.0546
     19 C           8.0077    0.2684    1.4025 C.ar    1  UNL1       -0.0612
     20 C           8.1812   -0.9526    0.7542 C.ar    1  UNL1       -0.0617
     21 C           7.0778   -1.6236    0.2312 C.ar    1  UNL1       -0.0612
     22 C           5.8004   -1.0704    0.3513 C.ar    1  UNL1       -0.0546
     23 C           0.6428   -0.0316   -1.1419 C.3     1  UNL1        0.0150
     24 C          -0.6886    0.4570   -1.7482 C.3     1  UNL1        0.0266
     25 H          -3.6033   -1.3062   -0.0257 H       1  UNL1        0.1538
     26 H          -5.4805   -2.4171    0.6227 H       1  UNL1        0.0636
     27 H          -7.9237   -2.4687    0.8975 H       1  UNL1        0.0618
     28 H          -9.3238   -0.6323   -0.0127 H       1  UNL1        0.0618
     29 H          -8.2471    1.2754   -1.1788 H       1  UNL1        0.0618
     30 H          -5.8184    1.3683   -1.4299 H       1  UNL1        0.0636
     31 H          -1.4370   -1.0303    0.7790 H       1  UNL1        0.0477
     32 H          -2.4412    0.3992    1.0887 H       1  UNL1        0.0477
     33 H          -0.1987    0.7730    2.0094 H       1  UNL1        0.0442
     34 H          -0.5198    1.8967    0.6815 H       1  UNL1        0.0442
     35 H           1.9220    1.8241    1.3874 H       1  UNL1        0.0470
     36 H           1.8413    2.1795   -0.3319 H       1  UNL1        0.0470
     37 H           3.5232    0.2717   -0.7405 H       1  UNL1        0.0585
     38 H           4.1078    1.2544    2.1125 H       1  UNL1        0.0621
     39 H           6.6145    1.7748    2.0331 H       1  UNL1        0.0623
     40 H           8.8661    0.7912    1.8161 H       1  UNL1        0.0618
     41 H           9.1746   -1.3836    0.6615 H       1  UNL1        0.0618
     42 H           7.2087   -2.5813   -0.2657 H       1  UNL1        0.0618
     43 H           4.9501   -1.6197   -0.0456 H       1  UNL1        0.0623
     44 H           1.4588    0.2632   -1.8120 H       1  UNL1        0.0442
     45 H           0.6314   -1.1292   -1.1507 H       1  UNL1        0.0442
     46 H          -0.6769    1.5490   -1.8509 H       1  UNL1        0.0477
     47 H          -0.7994    0.0223   -2.7469 H       1  UNL1        0.0477
@<TRIPOS>BOND
     1     1     2    2
     2     2     3    1
     3     3     4    1
     4     4     5   ar
     5     5     6   ar
     6     6     7   ar
     7     7     8   ar
     8     8     9   ar
     9     2    10    1
    10    10    11    1
    11    11    12    1
    12    12    13    1
    13    13    14    1
    14    14    15    1
    15    15    16    2
    16    16    17    1
    17    17    18   ar
    18    18    19   ar
    19    19    20   ar
    20    20    21   ar
    21    21    22   ar
    22    13    23    1
    23    23    24    1
    24     9     4   ar
    25    24    10    1
    26    22    17   ar
    27     3    25    1
    28     5    26    1
    29     6    27    1
    30     7    28    1
    31     8    29    1
    32     9    30    1
    33    11    31    1
    34    11    32    1
    35    12    33    1
    36    12    34    1
    37    14    35    1
    38    14    36    1
    39    15    37    1
    40    16    38    1
    41    18    39    1
    42    19    40    1
    43    20    41    1
    44    21    42    1
    45    22    43    1
    46    23    44    1
    47    23    45    1
    48    24    46    1
    49    24    47    1
