@<TRIPOS>MOLECULE
*****
 35 38 0 0 0
SMALL
GASTEIGER

@<TRIPOS>ATOM
      1 S           1.1397   -1.8458    1.3667 S.2     1  UNL1       -0.0180
      2 C           1.0115   -0.7034    0.1372 C.2     1  UNL1        0.1437
      3 N           2.0976   -0.2900   -0.6444 N.am    1  UNL1       -0.2964
      4 C           3.4771   -0.2475   -0.3416 C.ar    1  UNL1        0.0326
      5 C           4.3739   -0.2500   -1.4178 C.ar    1  UNL1       -0.0405
      6 C           5.7516   -0.1699   -1.1976 C.ar    1  UNL1       -0.0600
      7 C           6.2441   -0.0675    0.1004 C.ar    1  UNL1       -0.0616
      8 C           5.3586   -0.0357    1.1748 C.ar    1  UNL1       -0.0600
      9 C           3.9801   -0.1163    0.9541 C.ar    1  UNL1       -0.0405
     10 N          -0.1740   -0.0766   -0.2736 N.am    1  UNL1       -0.2511
     11 C          -0.2773    1.0777   -1.2040 C.3     1  UNL1        0.0396
     12 C          -1.7564    1.5010   -1.1865 C.3     1  UNL1        0.0426
     13 N          -2.3399    0.5196   -0.3006 N.ar    1  UNL1       -0.3099
     14 C          -1.4319   -0.3542    0.2173 C.ar    1  UNL1        0.2050
     15 N          -2.0021   -1.2058    1.0238 N.ar    1  UNL1       -0.2140
     16 C          -3.3396   -0.8451    1.0142 C.ar    1  UNL1        0.0909
     17 C          -4.4203   -1.4144    1.7034 C.ar    1  UNL1       -0.0342
     18 C          -5.6964   -0.8630    1.5289 C.ar    1  UNL1       -0.0596
     19 C          -5.8958    0.2340    0.6856 C.ar    1  UNL1       -0.0597
     20 C          -4.8341    0.8206   -0.0136 C.ar    1  UNL1       -0.0360
     21 C          -3.5733    0.2526    0.1761 C.ar    1  UNL1        0.0701
     22 H           1.8826   -0.2370   -1.6300 H       1  UNL1        0.1538
     23 H           4.0169   -0.3331   -2.4405 H       1  UNL1        0.0636
     24 H           6.4393   -0.1901   -2.0390 H       1  UNL1        0.0618
     25 H           7.3150   -0.0074    0.2759 H       1  UNL1        0.0618
     26 H           5.7367    0.0576    2.1899 H       1  UNL1        0.0618
     27 H           3.3215   -0.0464    1.8141 H       1  UNL1        0.0636
     28 H           0.0314    0.7598   -2.2056 H       1  UNL1        0.0487
     29 H           0.3854    1.8816   -0.8662 H       1  UNL1        0.0487
     30 H          -1.9028    2.4943   -0.7544 H       1  UNL1        0.0508
     31 H          -2.2296    1.4218   -2.1684 H       1  UNL1        0.0508
     32 H          -4.2581   -2.2643    2.3571 H       1  UNL1        0.0639
     33 H          -6.5408   -1.2969    2.0595 H       1  UNL1        0.0618
     34 H          -6.8987    0.6409    0.5710 H       1  UNL1        0.0618
     35 H          -4.9918    1.6717   -0.6662 H       1  UNL1        0.0639
@<TRIPOS>BOND
     1     1     2    2
     2     2     3    1
     3     3     4    1
     4     4     5   ar
     5     5     6   ar
     6     6     7   ar
     7     7     8   ar
     8     8     9   ar
     9     2    10    1
    10    10    11    1
    11    11    12    1
    12    12    13    1
    13    13    14   ar
    14    14    15   ar
    15    15    16   ar
    16    16    17   ar
    17    17    18   ar
    18    18    19   ar
    19    19    20   ar
    20    20    21   ar
    21     9     4   ar
    22    14    10    1
    23    21    16   ar
    24    21    13   ar
    25     3    22    1
    26     5    23    1
    27     6    24    1
    28     7    25    1
    29     8    26    1
    30     9    27    1
    31    11    28    1
    32    11    29    1
    33    12    30    1
    34    12    31    1
    35    17    32    1
    36    18    33    1
    37    19    34    1
    38    20    35    1
