@<TRIPOS>MOLECULE
*****
 40 41 0 0 0
SMALL
GASTEIGER

@<TRIPOS>ATOM
      1 S          -0.4062   -1.1420    3.2794 S.2     1  UNL1       -0.0189
      2 C           0.2104   -0.8299    1.7609 C.2     1  UNL1        0.1305
      3 N          -0.4485   -0.2266    0.7272 N.am    1  UNL1       -0.3265
      4 C          -1.8542    0.1633    0.7403 C.3     1  UNL1        0.0123
      5 C          -2.1549    1.1406   -0.3929 C.3     1  UNL1       -0.0193
      6 C          -3.5922    1.6561   -0.3544 C.3     1  UNL1        0.0256
      7 N          -4.5755    0.6397   -0.6621 N.ar    1  UNL1       -0.3368
      8 C          -5.3470   -0.0422    0.2352 C.ar    1  UNL1        0.0240
      9 C          -6.1193   -0.8836   -0.5316 C.ar    1  UNL1        0.0454
     10 N          -5.8419   -0.7189   -1.8644 N.ar    1  UNL1       -0.2441
     11 C          -4.9157    0.2114   -1.9131 C.ar    1  UNL1        0.0959
     12 N           1.5073   -1.1756    1.5227 N.am    1  UNL1       -0.3237
     13 C           2.3931   -0.7347    0.4443 C.3     1  UNL1        0.0222
     14 C           2.8320    0.7181    0.6460 C.3     1  UNL1       -0.0345
     15 C           3.6795    1.2248   -0.5236 C.3     1  UNL1       -0.0514
     16 C           4.4604    0.1210   -1.2385 C.3     1  UNL1       -0.0529
     17 C           4.8402   -1.0068   -0.2899 C.3     1  UNL1       -0.0514
     18 C           3.6115   -1.6687    0.3394 C.3     1  UNL1       -0.0345
     19 H          -0.0922   -0.4803   -0.1820 H       1  UNL1        0.1477
     20 H          -2.4440   -0.7541    0.6418 H       1  UNL1        0.0462
     21 H          -2.0928    0.6260    1.7034 H       1  UNL1        0.0462
     22 H          -1.4748    1.9982   -0.3142 H       1  UNL1        0.0297
     23 H          -1.9440    0.6644   -1.3587 H       1  UNL1        0.0297
     24 H          -3.8340    2.0773    0.6282 H       1  UNL1        0.0492
     25 H          -3.7210    2.4565   -1.0927 H       1  UNL1        0.0492
     26 H          -5.2876    0.1118    1.3037 H       1  UNL1        0.0825
     27 H          -6.8608   -1.5969   -0.1955 H       1  UNL1        0.0845
     28 H          -4.4631    0.6014   -2.8156 H       1  UNL1        0.1029
     29 H           1.9613   -1.5314    2.3581 H       1  UNL1        0.1480
     30 H           1.8366   -0.8004   -0.4975 H       1  UNL1        0.0498
     31 H           1.9682    1.3803    0.7779 H       1  UNL1        0.0283
     32 H           3.4128    0.7949    1.5751 H       1  UNL1        0.0283
     33 H           4.3730    1.9877   -0.1494 H       1  UNL1        0.0266
     34 H           3.0371    1.7295   -1.2554 H       1  UNL1        0.0266
     35 H           3.8508   -0.2859   -2.0552 H       1  UNL1        0.0265
     36 H           5.3574    0.5468   -1.7022 H       1  UNL1        0.0265
     37 H           5.4807   -0.6044    0.5053 H       1  UNL1        0.0266
     38 H           5.4353   -1.7619   -0.8159 H       1  UNL1        0.0266
     39 H           3.8983   -2.0574    1.3251 H       1  UNL1        0.0283
     40 H           3.3243   -2.5480   -0.2515 H       1  UNL1        0.0283
@<TRIPOS>BOND
     1     1     2    2
     2     2     3    1
     3     3     4    1
     4     4     5    1
     5     5     6    1
     6     6     7    1
     7     7     8   ar
     8     8     9   ar
     9     9    10   ar
    10    10    11   ar
    11     2    12    1
    12    12    13    1
    13    13    14    1
    14    14    15    1
    15    15    16    1
    16    16    17    1
    17    17    18    1
    18    11     7   ar
    19    18    13    1
    20     3    19    1
    21     4    20    1
    22     4    21    1
    23     5    22    1
    24     5    23    1
    25     6    24    1
    26     6    25    1
    27     8    26    1
    28     9    27    1
    29    11    28    1
    30    12    29    1
    31    13    30    1
    32    14    31    1
    33    14    32    1
    34    15    33    1
    35    15    34    1
    36    16    35    1
    37    16    36    1
    38    17    37    1
    39    17    38    1
    40    18    39    1
    41    18    40    1
