@<TRIPOS>MOLECULE
*****
 49 56 0 0 0
SMALL
GASTEIGER

@<TRIPOS>ATOM
      1 SI          5.0732   -0.6520   -1.9125 Si      1  UNL1        0.0000
      2 C           6.3072    0.1771   -0.6612 C.ar    1  UNL1        0.0000
      3 C           7.6480    0.4919   -0.8399 C.ar    1  UNL1        0.0000
      4 C           8.3278    1.0906    0.2236 C.ar    1  UNL1        0.0000
      5 C           7.6739    1.3658    1.4378 C.ar    1  UNL1        0.0000
      6 C           6.3232    1.0487    1.6181 C.ar    1  UNL1        0.0000
      7 C           5.6421    0.4554    0.5693 C.ar    1  UNL1        0.0000
      8 C           4.2459    0.0432    0.5329 C.ar    1  UNL1        0.0000
      9 N           3.2531    0.1091    1.4624 N.ar    1  UNL1        0.0000
     10 C           2.1140   -0.4304    0.8877 C.ar    1  UNL1        0.0000
     11 C           0.7660   -0.6658    1.2686 C.ar    1  UNL1        0.0000
     12 C           0.0713   -1.2425    0.2205 C.ar    1  UNL1        0.0000
     13 S           1.0317   -1.5330   -1.1821 S.2     1  UNL1        0.0000
     14 C           2.4003   -0.8373   -0.3934 C.ar    1  UNL1        0.0000
     15 C           3.7475   -0.5358   -0.6155 C.ar    1  UNL1        0.0000
     16 C          -1.3159   -1.6299    0.2401 C.ar    1  UNL1        0.0000
     17 S          -1.6416   -3.2554    0.7174 S.2     1  UNL1        0.0000
     18 C          -3.3221   -3.0460    0.5612 C.ar    1  UNL1        0.0000
     19 C          -3.6530   -1.7711    0.1636 C.ar    1  UNL1        0.0000
     20 C          -2.4848   -0.9268   -0.0331 C.ar    1  UNL1        0.0000
     21 C          -2.5879    0.4479   -0.4507 C.ar    1  UNL1        0.0000
     22 C          -1.5113    1.3516   -0.6805 C.ar    1  UNL1        0.0000
     23 C          -1.7309    2.6644   -1.0808 C.ar    1  UNL1        0.0000
     24 C          -3.0252    3.1079   -1.2624 C.ar    1  UNL1        0.0000
     25 C          -4.0989    2.2369   -1.0467 C.ar    1  UNL1        0.0000
     26 C          -3.9500    0.8855   -0.6395 C.ar    1  UNL1        0.0000
     27 C          -5.1195    0.0104   -0.4326 C.ar    1  UNL1        0.0000
     28 C          -6.4585    0.4461   -0.6222 C.ar    1  UNL1        0.0000
     29 C          -7.5787   -0.3759   -0.4304 C.ar    1  UNL1        0.0000
     30 C          -7.4186   -1.6919   -0.0345 C.ar    1  UNL1        0.0000
     31 C          -6.1377   -2.1855    0.1699 C.ar    1  UNL1        0.0000
     32 C          -4.9981   -1.3550   -0.0233 C.ar    1  UNL1        0.0000
     33 H           4.8660    0.2250   -3.0946 H       1  UNL1        0.0000
     34 H           5.5119   -2.0348   -2.2359 H       1  UNL1        0.0000
     35 H           8.1628    0.2837   -1.7727 H       1  UNL1        0.0000
     36 H           9.3790    1.3483    0.1128 H       1  UNL1        0.0000
     37 H           8.2286    1.8323    2.2488 H       1  UNL1        0.0000
     38 H           5.8334    1.2669    2.5601 H       1  UNL1        0.0000
     39 H           3.2938    0.4746    2.4050 H       1  UNL1        0.0000
     40 H           0.3314   -0.4269    2.2308 H       1  UNL1        0.0000
     41 H          -3.9641   -3.8864    0.7793 H       1  UNL1        0.0000
     42 H          -0.4787    1.0541   -0.5602 H       1  UNL1        0.0000
     43 H          -0.8903    3.3314   -1.2513 H       1  UNL1        0.0000
     44 H          -3.2124    4.1316   -1.5763 H       1  UNL1        0.0000
     45 H          -5.0825    2.6654   -1.2153 H       1  UNL1        0.0000
     46 H          -6.6763    1.4635   -0.9338 H       1  UNL1        0.0000
     47 H          -8.5760    0.0251   -0.5950 H       1  UNL1        0.0000
     48 H          -8.2843   -2.3311    0.1141 H       1  UNL1        0.0000
     49 H          -6.0350   -3.2208    0.4798 H       1  UNL1        0.0000
@<TRIPOS>BOND
     1     1     2    1
     2     2     3   ar
     3     3     4   ar
     4     4     5   ar
     5     5     6   ar
     6     6     7   ar
     7     7     8    1
     8     8     9   ar
     9     9    10   ar
    10    10    11   ar
    11    11    12   ar
    12    12    13   ar
    13    13    14   ar
    14    14    15   ar
    15    12    16    1
    16    16    17   ar
    17    17    18   ar
    18    18    19   ar
    19    19    20   ar
    20    20    21   ar
    21    21    22   ar
    22    22    23   ar
    23    23    24   ar
    24    24    25   ar
    25    25    26   ar
    26    26    27   ar
    27    27    28   ar
    28    28    29   ar
    29    29    30   ar
    30    30    31   ar
    31    31    32   ar
    32    15     1    1
    33    20    16   ar
    34    26    21   ar
    35    32    27   ar
    36     7     2   ar
    37    15     8   ar
    38    32    19   ar
    39    14    10   ar
    40     1    33    1
    41     1    34    1
    42     3    35    1
    43     4    36    1
    44     5    37    1
    45     6    38    1
    46     9    39    1
    47    11    40    1
    48    18    41    1
    49    22    42    1
    50    23    43    1
    51    24    44    1
    52    25    45    1
    53    28    46    1
    54    29    47    1
    55    30    48    1
    56    31    49    1
