@<TRIPOS>MOLECULE
*****
 38 43 0 0 0
SMALL
GASTEIGER

@<TRIPOS>ATOM
      1 SI         -3.4825   -1.6653    0.0733 Si      1  UNL1        0.0000
      2 C          -4.5721   -0.1029    0.2570 C.ar    1  UNL1        0.0000
      3 C          -5.9427    0.0685    0.3108 C.ar    1  UNL1        0.0000
      4 C          -6.4186    1.3732    0.4529 C.ar    1  UNL1        0.0000
      5 C          -5.5080    2.4335    0.5333 C.ar    1  UNL1        0.0000
      6 N          -4.1613    2.3001    0.4835 N.ar    1  UNL1        0.0000
      7 C          -3.7441    1.0350    0.3476 C.ar    1  UNL1        0.0000
      8 C          -2.3369    0.7087    0.2778 C.ar    1  UNL1        0.0000
      9 N          -1.2198    1.4957    0.3352 N.ar    1  UNL1        0.0000
     10 C          -0.0926    0.6882    0.2243 C.ar    1  UNL1        0.0000
     11 C           1.2915    1.0091    0.2275 C.ar    1  UNL1        0.0000
     12 C           2.2945    0.0060    0.0902 C.ar    1  UNL1        0.0000
     13 C           3.7218    0.3116    0.0653 C.ar    1  UNL1        0.0000
     14 C           4.5816   -0.1742   -0.9195 C.ar    1  UNL1        0.0000
     15 C           5.9288    0.1792   -0.8820 C.ar    1  UNL1        0.0000
     16 C           6.3845    1.0137    0.1294 C.ar    1  UNL1        0.0000
     17 C           5.4676    1.4682    1.0602 C.ar    1  UNL1        0.0000
     18 N           4.1560    1.1440    1.0455 N.ar    1  UNL1        0.0000
     19 C           1.7386   -1.2792   -0.0077 C.ar    1  UNL1        0.0000
     20 C           2.3989   -2.4871   -0.0811 C.ar    1  UNL1        0.0000
     21 O           1.5042   -3.5272   -0.1597 O.2     1  UNL1        0.0000
     22 C           0.2422   -2.9903   -0.1116 C.ar    1  UNL1        0.0000
     23 C           0.3797   -1.6433   -0.0090 C.ar    1  UNL1        0.0000
     24 C          -0.5817   -0.6128    0.1040 C.ar    1  UNL1        0.0000
     25 C          -1.9492   -0.6114    0.1364 C.ar    1  UNL1        0.0000
     26 H          -3.7151   -2.3283   -1.2360 H       1  UNL1        0.0000
     27 H          -3.6503   -2.5751    1.2359 H       1  UNL1        0.0000
     28 H          -6.6299   -0.7687    0.2466 H       1  UNL1        0.0000
     29 H          -7.4849    1.5703    0.5015 H       1  UNL1        0.0000
     30 H          -5.8628    3.4550    0.6442 H       1  UNL1        0.0000
     31 H          -1.2233    2.5010    0.4445 H       1  UNL1        0.0000
     32 H           1.6004    2.0484    0.3333 H       1  UNL1        0.0000
     33 H           4.2114   -0.8065   -1.7203 H       1  UNL1        0.0000
     34 H           6.6131   -0.1899   -1.6406 H       1  UNL1        0.0000
     35 H           7.4261    1.3083    0.1880 H       1  UNL1        0.0000
     36 H           5.7703    2.1275    1.8687 H       1  UNL1        0.0000
     37 H           3.4375   -2.7865   -0.0834 H       1  UNL1        0.0000
     38 H          -0.5730   -3.6964   -0.1504 H       1  UNL1        0.0000
@<TRIPOS>BOND
     1     1     2    1
     2     2     3   ar
     3     3     4   ar
     4     4     5   ar
     5     5     6   ar
     6     6     7   ar
     7     7     8    1
     8     8     9   ar
     9     9    10   ar
    10    10    11   ar
    11    11    12   ar
    12    12    13    1
    13    13    14   ar
    14    14    15   ar
    15    15    16   ar
    16    16    17   ar
    17    17    18   ar
    18    12    19   ar
    19    19    20   ar
    20    20    21   ar
    21    21    22   ar
    22    22    23   ar
    23    23    24   ar
    24    24    25   ar
    25    25     1    1
    26     7     2   ar
    27    25     8   ar
    28    24    10   ar
    29    18    13   ar
    30    23    19   ar
    31     1    26    1
    32     1    27    1
    33     3    28    1
    34     4    29    1
    35     5    30    1
    36     9    31    1
    37    11    32    1
    38    14    33    1
    39    15    34    1
    40    16    35    1
    41    17    36    1
    42    20    37    1
    43    22    38    1
