@<TRIPOS>MOLECULE
*****
 43 49 0 0 0
SMALL
GASTEIGER

@<TRIPOS>ATOM
      1 SI          3.9526   -1.0492   -0.6134 Si      1  UNL1        0.0000
      2 C           4.8885    0.6263   -0.5620 C.ar    1  UNL1        0.0000
      3 C           6.2419    0.8931   -0.6885 C.ar    1  UNL1        0.0000
      4 C           6.6212    2.2270   -0.6064 C.ar    1  UNL1        0.0000
      5 N           5.7654    3.2678   -0.4134 N.ar    1  UNL1        0.0000
      6 C           4.4471    2.9745   -0.2924 C.ar    1  UNL1        0.0000
      7 C           3.9671    1.6851   -0.3596 C.ar    1  UNL1        0.0000
      8 C           2.6007    1.2060   -0.2521 C.ar    1  UNL1        0.0000
      9 N           1.4167    1.8413   -0.0538 N.ar    1  UNL1        0.0000
     10 C           0.3949    0.9019   -0.0314 C.ar    1  UNL1        0.0000
     11 C          -0.9755    1.1132    0.1392 C.ar    1  UNL1        0.0000
     12 C          -1.8480    0.0088    0.1346 C.ar    1  UNL1        0.0000
     13 C          -3.2828    0.2789    0.2819 C.ar    1  UNL1        0.0000
     14 C          -4.1752    0.2930   -0.8178 C.ar    1  UNL1        0.0000
     15 C          -5.5608    0.5531   -0.7007 C.ar    1  UNL1        0.0000
     16 C          -6.1857    0.8272    0.5267 C.ar    1  UNL1        0.0000
     17 C          -5.3486    0.8346    1.6681 C.ar    1  UNL1        0.0000
     18 N          -5.7493    1.0761    2.9258 N.ar    1  UNL1        0.0000
     19 S          -4.3947    0.9640    3.8786 S.2     1  UNL1        0.0000
     20 N          -3.2400    0.6146    2.7419 N.ar    1  UNL1        0.0000
     21 C          -3.8662    0.5581    1.5529 C.ar    1  UNL1        0.0000
     22 C          -1.3355   -1.3063   -0.0326 C.ar    1  UNL1        0.0000
     23 C          -2.1586   -2.4587   -0.0250 C.ar    1  UNL1        0.0000
     24 C          -1.6386   -3.7437   -0.1959 C.ar    1  UNL1        0.0000
     25 C          -0.2753   -3.9195   -0.3776 C.ar    1  UNL1        0.0000
     26 C           0.5708   -2.8118   -0.3842 C.ar    1  UNL1        0.0000
     27 C           0.0646   -1.5032   -0.2115 C.ar    1  UNL1        0.0000
     28 C           0.9466   -0.3779   -0.2121 C.ar    1  UNL1        0.0000
     29 C           2.3246   -0.1426   -0.3477 C.ar    1  UNL1        0.0000
     30 H           4.0788   -1.6907   -1.9477 H       1  UNL1        0.0000
     31 H           4.3561   -1.9228    0.5183 H       1  UNL1        0.0000
     32 H           6.9786    0.1142   -0.8434 H       1  UNL1        0.0000
     33 H           7.6668    2.5115   -0.6966 H       1  UNL1        0.0000
     34 H           3.7963    3.8274   -0.1391 H       1  UNL1        0.0000
     35 H           1.2827    2.8357    0.0631 H       1  UNL1        0.0000
     36 H          -1.3633    2.1196    0.2760 H       1  UNL1        0.0000
     37 H          -3.7744    0.0904   -1.8132 H       1  UNL1        0.0000
     38 H          -6.1702    0.5403   -1.6049 H       1  UNL1        0.0000
     39 H          -7.2481    1.0248    0.6034 H       1  UNL1        0.0000
     40 H          -3.2324   -2.3710    0.1256 H       1  UNL1        0.0000
     41 H          -2.3029   -4.6037   -0.1814 H       1  UNL1        0.0000
     42 H           0.1336   -4.9177   -0.5087 H       1  UNL1        0.0000
     43 H           1.6304   -2.9898   -0.5228 H       1  UNL1        0.0000
@<TRIPOS>BOND
     1     1     2    1
     2     2     3   ar
     3     3     4   ar
     4     4     5   ar
     5     5     6   ar
     6     6     7   ar
     7     7     8    1
     8     8     9   ar
     9     9    10   ar
    10    10    11   ar
    11    11    12   ar
    12    12    13    1
    13    13    14   ar
    14    14    15   ar
    15    15    16   ar
    16    16    17   ar
    17    17    18   ar
    18    18    19   ar
    19    19    20   ar
    20    20    21   ar
    21    12    22   ar
    22    22    23   ar
    23    23    24   ar
    24    24    25   ar
    25    25    26   ar
    26    26    27   ar
    27    27    28   ar
    28    28    29   ar
    29    29     1    1
    30     7     2   ar
    31    29     8   ar
    32    28    10   ar
    33    21    13   ar
    34    27    22   ar
    35    21    17   ar
    36     1    30    1
    37     1    31    1
    38     3    32    1
    39     4    33    1
    40     6    34    1
    41     9    35    1
    42    11    36    1
    43    14    37    1
    44    15    38    1
    45    16    39    1
    46    23    40    1
    47    24    41    1
    48    25    42    1
    49    26    43    1
