@<TRIPOS>MOLECULE
*****
 41 47 0 0 0
SMALL
GASTEIGER

@<TRIPOS>ATOM
      1 SI          2.0054   -1.1862    0.9397 Si      1  UNL1        0.0000
      2 C           2.7233   -0.2196   -0.5197 C.2     1  UNL1        0.0000
      3 C           1.7438    0.4920   -1.1195 C.2     1  UNL1        0.0000
      4 C           0.4115    0.3473   -0.5156 C.ar    1  UNL1        0.0000
      5 N          -0.6232    1.0097   -1.0355 N.ar    1  UNL1        0.0000
      6 C          -1.8188    0.8194   -0.4166 C.ar    1  UNL1        0.0000
      7 C          -2.0768    0.0023    0.7075 C.ar    1  UNL1        0.0000
      8 C          -0.9419   -0.6712    1.2098 C.ar    1  UNL1        0.0000
      9 C          -1.1299   -1.4942    2.3185 C.ar    1  UNL1        0.0000
     10 N          -2.3036   -1.6999    2.9495 N.ar    1  UNL1        0.0000
     11 C          -3.3962   -1.0824    2.5057 C.ar    1  UNL1        0.0000
     12 C          -4.5614   -1.3798    3.2508 C.ar    1  UNL1        0.0000
     13 C          -5.8514   -0.8752    3.0133 C.ar    1  UNL1        0.0000
     14 C          -5.8539   -0.0203    1.9249 C.ar    1  UNL1        0.0000
     15 C          -7.0159    0.5867    1.5171 C.ar    1  UNL1        0.0000
     16 S          -6.7435    1.5865    0.1586 S.2     1  UNL1        0.0000
     17 C          -5.0655    1.1964    0.1282 C.ar    1  UNL1        0.0000
     18 C          -4.6941    0.3219    1.1244 C.ar    1  UNL1        0.0000
     19 C          -3.3634   -0.1995    1.3700 C.ar    1  UNL1        0.0000
     20 C           0.3085   -0.4943    0.5908 C.ar    1  UNL1        0.0000
     21 C           4.0965   -0.2323   -0.9358 C.ar    1  UNL1        0.0000
     22 S           5.2844   -1.1957   -0.0832 S.2     1  UNL1        0.0000
     23 C           6.5775   -0.7256   -1.0890 C.ar    1  UNL1        0.0000
     24 C           6.1600    0.1399   -2.0596 C.ar    1  UNL1        0.0000
     25 N           7.0103    0.6589   -2.9884 N.ar    1  UNL1        0.0000
     26 C           6.3482    1.4889   -3.8369 C.ar    1  UNL1        0.0000
     27 C           4.9820    1.7769   -3.7733 C.ar    1  UNL1        0.0000
     28 N           4.1170    1.2702   -2.8555 N.ar    1  UNL1        0.0000
     29 C           4.7443    0.4273   -1.9797 C.ar    1  UNL1        0.0000
     30 H           2.5228   -0.7300    2.2549 H       1  UNL1        0.0000
     31 H           2.0473   -2.6577    0.7443 H       1  UNL1        0.0000
     32 H           1.8479    1.1396   -1.9788 H       1  UNL1        0.0000
     33 H          -2.5970    1.3897   -0.9004 H       1  UNL1        0.0000
     34 H          -0.3095   -2.0486    2.7676 H       1  UNL1        0.0000
     35 H          -4.4468   -2.0679    4.0919 H       1  UNL1        0.0000
     36 H          -6.7065   -1.1406    3.6202 H       1  UNL1        0.0000
     37 H          -8.0095    0.5025    1.9366 H       1  UNL1        0.0000
     38 H          -4.4985    1.6697   -0.6517 H       1  UNL1        0.0000
     39 H           7.5772   -1.1009   -0.9259 H       1  UNL1        0.0000
     40 H           6.9656    1.9415   -4.6077 H       1  UNL1        0.0000
     41 H           4.5339    2.4544   -4.4950 H       1  UNL1        0.0000
@<TRIPOS>BOND
     1     1     2    1
     2     2     3    2
     3     3     4    1
     4     4     5   ar
     5     5     6   ar
     6     6     7   ar
     7     7     8   ar
     8     8     9   ar
     9     9    10   ar
    10    10    11   ar
    11    11    12   ar
    12    12    13   ar
    13    13    14   ar
    14    14    15   ar
    15    15    16   ar
    16    16    17   ar
    17    17    18   ar
    18    18    19   ar
    19     8    20   ar
    20     2    21    1
    21    21    22   ar
    22    22    23   ar
    23    23    24   ar
    24    24    25   ar
    25    25    26   ar
    26    26    27   ar
    27    27    28   ar
    28    28    29   ar
    29    20     1    1
    30    29    21   ar
    31    20     4   ar
    32    29    24   ar
    33    19     7   ar
    34    19    11   ar
    35    18    14   ar
    36     1    30    1
    37     1    31    1
    38     3    32    1
    39     6    33    1
    40     9    34    1
    41    12    35    1
    42    13    36    1
    43    15    37    1
    44    17    38    1
    45    23    39    1
    46    26    40    1
    47    27    41    1
