@<TRIPOS>MOLECULE
*****
 36 41 0 0 0
SMALL
GASTEIGER

@<TRIPOS>ATOM
      1 SI         -1.0207    4.1407    0.1899 Si      1  UNL1        0.0000
      2 C          -1.7731    2.4402    0.3193 C.2     1  UNL1        0.0000
      3 C          -0.8656    1.4593    0.1265 C.ar    1  UNL1        0.0000
      4 C           0.5178    1.9684   -0.0785 C.ar    1  UNL1        0.0000
      5 C           0.6229    3.3158   -0.0861 C.2     1  UNL1        0.0000
      6 C           1.6617    1.0163   -0.1539 C.ar    1  UNL1        0.0000
      7 C           2.9954    1.5067   -0.3945 C.ar    1  UNL1        0.0000
      8 C           4.1558    0.7136   -0.3683 C.ar    1  UNL1        0.0000
      9 C           3.8700   -0.6016   -0.0262 C.ar    1  UNL1        0.0000
     10 C           4.8818   -1.5178    0.1261 C.ar    1  UNL1        0.0000
     11 S           4.2704   -3.0327    0.6289 S.2     1  UNL1        0.0000
     12 C           2.6526   -2.4454    0.6443 C.ar    1  UNL1        0.0000
     13 C           2.5415   -1.1438    0.2082 C.ar    1  UNL1        0.0000
     14 C           1.3556   -0.3735    0.0857 C.ar    1  UNL1        0.0000
     15 C          -0.0530   -0.8343    0.1314 C.ar    1  UNL1        0.0000
     16 SI         -0.6401   -2.6380   -0.0957 Si      1  UNL1        0.0000
     17 C          -2.3565   -2.0358   -0.1155 C.2     1  UNL1        0.0000
     18 C          -3.5970   -2.7521   -0.2807 C.2     1  UNL1        0.0000
     19 C          -4.6767   -1.9465   -0.3012 C.2     1  UNL1        0.0000
     20 SI         -4.1708   -0.1274   -0.1038 Si      1  UNL1        0.0000
     21 C          -2.4114   -0.6896    0.0099 C.2     1  UNL1        0.0000
     22 C          -1.1314    0.0179    0.1261 C.ar    1  UNL1        0.0000
     23 H          -1.0778    4.8864    1.4699 H       1  UNL1        0.0000
     24 H          -1.4957    4.8817   -1.0032 H       1  UNL1        0.0000
     25 H          -2.8228    2.3631    0.5295 H       1  UNL1        0.0000
     26 H           1.5086    3.9210   -0.1759 H       1  UNL1        0.0000
     27 H           3.1443    2.5636   -0.6082 H       1  UNL1        0.0000
     28 H           5.1434    1.1179   -0.5471 H       1  UNL1        0.0000
     29 H           5.9465   -1.3812   -0.0060 H       1  UNL1        0.0000
     30 H           1.9079   -3.1298    1.0099 H       1  UNL1        0.0000
     31 H          -0.1920   -3.2163   -1.3884 H       1  UNL1        0.0000
     32 H          -0.3508   -3.4837    1.0920 H       1  UNL1        0.0000
     33 H          -3.6471   -3.8294   -0.3805 H       1  UNL1        0.0000
     34 H          -5.7100   -2.2331   -0.4135 H       1  UNL1        0.0000
     35 H          -4.4811    0.6520   -1.3288 H       1  UNL1        0.0000
     36 H          -4.7024    0.4472    1.1582 H       1  UNL1        0.0000
@<TRIPOS>BOND
     1     1     2    1
     2     2     3    2
     3     3     4   ar
     4     4     5    2
     5     4     6   ar
     6     6     7   ar
     7     7     8   ar
     8     8     9   ar
     9     9    10   ar
    10    10    11   ar
    11    11    12   ar
    12    12    13   ar
    13    13    14   ar
    14    14    15   ar
    15    15    16    1
    16    16    17    1
    17    17    18    1
    18    18    19    2
    19    19    20    1
    20    20    21    1
    21    21    22    1
    22     5     1    1
    23    14     6   ar
    24    22    15   ar
    25    22     3   ar
    26    13     9   ar
    27    21    17    2
    28     1    23    1
    29     1    24    1
    30     2    25    1
    31     5    26    1
    32     7    27    1
    33     8    28    1
    34    10    29    1
    35    12    30    1
    36    16    31    1
    37    16    32    1
    38    18    33    1
    39    19    34    1
    40    20    35    1
    41    20    36    1
