@<TRIPOS>MOLECULE
*****
 34 39 0 0 0
SMALL
GASTEIGER

@<TRIPOS>ATOM
      1 SI          0.2904    4.1144    0.7353 Si      1  UNL1        0.0000
      2 C           1.3527    2.6102    0.5511 C.2     1  UNL1        0.0000
      3 C           0.6307    1.4975    0.3056 C.ar    1  UNL1        0.0000
      4 C          -0.8394    1.7275    0.2392 C.ar    1  UNL1        0.0000
      5 C          -1.1935    3.0178    0.4375 C.2     1  UNL1        0.0000
      6 C          -1.7933    0.6042   -0.0249 C.ar    1  UNL1        0.0000
      7 C          -3.2098    0.8616   -0.0827 C.ar    1  UNL1        0.0000
      8 C          -4.1931   -0.1148   -0.3234 C.ar    1  UNL1        0.0000
      9 C          -3.6400   -1.3765   -0.5025 C.ar    1  UNL1        0.0000
     10 C          -4.4464   -2.4605   -0.7491 C.ar    1  UNL1        0.0000
     11 S          -3.5237   -3.8871   -0.9301 S.2     1  UNL1        0.0000
     12 C          -2.0464   -3.0401   -0.6761 C.ar    1  UNL1        0.0000
     13 C          -2.2211   -1.6920   -0.4546 C.ar    1  UNL1        0.0000
     14 C          -1.2229   -0.7111   -0.2120 C.ar    1  UNL1        0.0000
     15 C           0.2461   -0.8736   -0.1338 C.ar    1  UNL1        0.0000
     16 S           1.0885   -2.3416   -0.3277 S.2     1  UNL1        0.0000
     17 C           2.6220   -1.6322   -0.0935 C.ar    1  UNL1        0.0000
     18 C           3.8780   -2.2578   -0.1112 C.ar    1  UNL1        0.0000
     19 C           4.9929   -1.4596    0.1081 C.ar    1  UNL1        0.0000
     20 C           4.8063   -0.1095    0.3290 C.ar    1  UNL1        0.0000
     21 N           3.6164    0.5174    0.3516 N.ar    1  UNL1        0.0000
     22 C           2.5151   -0.2623    0.1366 C.ar    1  UNL1        0.0000
     23 C           1.1419    0.1662    0.1115 C.ar    1  UNL1        0.0000
     24 H           0.4778    5.1011   -0.3555 H       1  UNL1        0.0000
     25 H           0.2994    4.6733    2.1087 H       1  UNL1        0.0000
     26 H           2.4247    2.6833    0.6414 H       1  UNL1        0.0000
     27 H          -2.1752    3.4588    0.4430 H       1  UNL1        0.0000
     28 H          -3.5767    1.8754    0.0667 H       1  UNL1        0.0000
     29 H          -5.2493    0.1190   -0.3593 H       1  UNL1        0.0000
     30 H          -5.5239   -2.4994   -0.8338 H       1  UNL1        0.0000
     31 H          -1.1537   -3.6390   -0.7155 H       1  UNL1        0.0000
     32 H           3.9738   -3.3238   -0.2893 H       1  UNL1        0.0000
     33 H           5.9902   -1.8859    0.1063 H       1  UNL1        0.0000
     34 H           5.6616    0.5391    0.5035 H       1  UNL1        0.0000
@<TRIPOS>BOND
     1     1     2    1
     2     2     3    2
     3     3     4   ar
     4     4     5    2
     5     4     6   ar
     6     6     7   ar
     7     7     8   ar
     8     8     9   ar
     9     9    10   ar
    10    10    11   ar
    11    11    12   ar
    12    12    13   ar
    13    13    14   ar
    14    14    15   ar
    15    15    16   ar
    16    16    17   ar
    17    17    18   ar
    18    18    19   ar
    19    19    20   ar
    20    20    21   ar
    21    21    22   ar
    22    22    23   ar
    23     5     1    1
    24    14     6   ar
    25    23    15   ar
    26    23     3   ar
    27    13     9   ar
    28    22    17   ar
    29     1    24    1
    30     1    25    1
    31     2    26    1
    32     5    27    1
    33     7    28    1
    34     8    29    1
    35    10    30    1
    36    12    31    1
    37    18    32    1
    38    19    33    1
    39    20    34    1
