@<TRIPOS>MOLECULE
*****
 42 47 0 0 0
SMALL
GASTEIGER

@<TRIPOS>ATOM
      1 SI         -1.7559    3.1854    0.2328 Si      1  UNL1        0.0000
      2 C          -2.7397    1.6128    0.4229 C.2     1  UNL1        0.0000
      3 C          -1.9444    0.5234    0.3791 C.ar    1  UNL1        0.0000
      4 C          -2.3865   -0.8743    0.4890 C.ar    1  UNL1        0.0000
      5 C          -1.4244   -1.8269    0.4381 C.ar    1  UNL1        0.0000
      6 C          -0.0030   -1.5263    0.2806 C.ar    1  UNL1        0.0000
      7 C           0.4715   -0.2657    0.1666 C.ar    1  UNL1        0.0000
      8 C           1.9224   -0.0875    0.0163 C.ar    1  UNL1        0.0000
      9 C           2.5540   -0.2737   -1.2124 C.ar    1  UNL1        0.0000
     10 C           3.9330   -0.0835   -1.3165 C.ar    1  UNL1        0.0000
     11 C           4.6533    0.2938   -0.1846 C.ar    1  UNL1        0.0000
     12 N           4.0565    0.4825    1.0173 N.ar    1  UNL1        0.0000
     13 C           2.7169    0.2915    1.0910 C.ar    1  UNL1        0.0000
     14 C           6.1055    0.5025   -0.2231 C.ar    1  UNL1        0.0000
     15 C           7.0386    0.1223   -1.1756 C.ar    1  UNL1        0.0000
     16 N           8.3528    0.4787   -0.9341 N.ar    1  UNL1        0.0000
     17 C           8.4144    1.1238    0.2081 C.ar    1  UNL1        0.0000
     18 S           6.9341    1.3428    1.0365 S.2     1  UNL1        0.0000
     19 C          -0.4982    0.8292    0.2120 C.ar    1  UNL1        0.0000
     20 C          -0.2099    2.1432    0.1148 C.2     1  UNL1        0.0000
     21 C          -3.7325   -1.3069    0.6317 C.ar    1  UNL1        0.0000
     22 S          -4.3779   -2.1266    2.0225 S.2     1  UNL1        0.0000
     23 C          -5.9843   -2.2265    1.3558 C.ar    1  UNL1        0.0000
     24 C          -5.9585   -1.6449    0.1384 C.ar    1  UNL1        0.0000
     25 C          -6.8104   -1.3559   -0.9387 C.ar    1  UNL1        0.0000
     26 C          -5.9974   -0.7060   -1.8765 C.ar    1  UNL1        0.0000
     27 O          -4.6811   -0.5552   -1.4804 O.2     1  UNL1        0.0000
     28 C          -4.7393   -1.1462   -0.2533 C.ar    1  UNL1        0.0000
     29 H          -2.0536    3.8984   -1.0327 H       1  UNL1        0.0000
     30 H          -1.7789    4.0208    1.4577 H       1  UNL1        0.0000
     31 H          -3.8115    1.6383    0.5379 H       1  UNL1        0.0000
     32 H          -1.6742   -2.8836    0.5027 H       1  UNL1        0.0000
     33 H           0.6645   -2.3848    0.2607 H       1  UNL1        0.0000
     34 H           1.9789   -0.5583   -2.0903 H       1  UNL1        0.0000
     35 H           4.4159   -0.2217   -2.2775 H       1  UNL1        0.0000
     36 H           2.2873    0.4595    2.0755 H       1  UNL1        0.0000
     37 H           6.8186   -0.4297   -2.0811 H       1  UNL1        0.0000
     38 H           9.3464    1.5000    0.6091 H       1  UNL1        0.0000
     39 H           0.7591    2.5991   -0.0129 H       1  UNL1        0.0000
     40 H          -6.7928   -2.6916    1.9013 H       1  UNL1        0.0000
     41 H          -7.8625   -1.5735   -1.0517 H       1  UNL1        0.0000
     42 H          -6.2067   -0.2989   -2.8573 H       1  UNL1        0.0000
@<TRIPOS>BOND
     1     1     2    1
     2     2     3    2
     3     3     4   ar
     4     4     5   ar
     5     5     6   ar
     6     6     7   ar
     7     7     8    1
     8     8     9   ar
     9     9    10   ar
    10    10    11   ar
    11    11    12   ar
    12    12    13   ar
    13    11    14    1
    14    14    15   ar
    15    15    16   ar
    16    16    17   ar
    17    17    18   ar
    18     7    19   ar
    19    19    20    2
    20     4    21    1
    21    21    22   ar
    22    22    23   ar
    23    23    24   ar
    24    24    25   ar
    25    25    26   ar
    26    26    27   ar
    27    27    28   ar
    28    20     1    1
    29    28    21   ar
    30    19     3   ar
    31    28    24   ar
    32    13     8   ar
    33    18    14   ar
    34     1    29    1
    35     1    30    1
    36     2    31    1
    37     5    32    1
    38     6    33    1
    39     9    34    1
    40    10    35    1
    41    13    36    1
    42    15    37    1
    43    17    38    1
    44    20    39    1
    45    23    40    1
    46    25    41    1
    47    26    42    1
