@<TRIPOS>MOLECULE
*****
 36 40 0 0 0
SMALL
GASTEIGER

@<TRIPOS>ATOM
      1 SI         -2.3121   -2.7630    1.4782 Si      1  UNL1        0.0000
      2 C          -0.7352   -1.9708    0.8716 C.2     1  UNL1        0.0000
      3 C          -0.9868   -0.8428    0.1751 C.ar    1  UNL1        0.0000
      4 C           0.0206    0.0228   -0.4479 C.ar    1  UNL1        0.0000
      5 C          -0.4296    1.1149   -1.1087 C.ar    1  UNL1        0.0000
      6 C          -1.8456    1.4643   -1.2049 C.ar    1  UNL1        0.0000
      7 C          -2.8341    0.7143   -0.6627 C.ar    1  UNL1        0.0000
      8 C          -4.1784    1.1798   -0.8001 C.ar    1  UNL1        0.0000
      9 C          -5.0765    1.5870    0.1742 C.ar    1  UNL1        0.0000
     10 N          -6.3315    1.9666   -0.2630 N.ar    1  UNL1        0.0000
     11 C          -6.3843    1.8398   -1.5693 C.ar    1  UNL1        0.0000
     12 S          -4.9634    1.2682   -2.3362 S.2     1  UNL1        0.0000
     13 C          -2.4290   -0.4953    0.0651 C.ar    1  UNL1        0.0000
     14 C          -3.2597   -1.3725    0.6666 C.2     1  UNL1        0.0000
     15 C           1.4307   -0.2187   -0.4465 C.ar    1  UNL1        0.0000
     16 C           2.1422   -1.1783   -1.1400 C.ar    1  UNL1        0.0000
     17 C           3.5423   -1.1267   -0.8741 C.ar    1  UNL1        0.0000
     18 C           3.8839   -0.1334    0.0264 C.ar    1  UNL1        0.0000
     19 S           2.4815    0.7212    0.5339 S.2     1  UNL1        0.0000
     20 C           5.1978    0.2063    0.5259 C.ar    1  UNL1        0.0000
     21 C           5.5598    1.1821    1.4426 C.ar    1  UNL1        0.0000
     22 N           6.9083    1.2849    1.7370 N.ar    1  UNL1        0.0000
     23 C           7.5660    0.3860    1.0426 C.ar    1  UNL1        0.0000
     24 S           6.6284   -0.6136    0.0185 S.2     1  UNL1        0.0000
     25 H          -2.4280   -2.7375    2.9557 H       1  UNL1        0.0000
     26 H          -2.5691   -4.0731    0.8338 H       1  UNL1        0.0000
     27 H           0.2269   -2.4094    1.0846 H       1  UNL1        0.0000
     28 H           0.2587    1.7927   -1.6090 H       1  UNL1        0.0000
     29 H          -2.0638    2.3865   -1.7392 H       1  UNL1        0.0000
     30 H          -4.8575    1.6256    1.2350 H       1  UNL1        0.0000
     31 H          -7.2742    2.0797   -2.1363 H       1  UNL1        0.0000
     32 H          -4.3368   -1.3381    0.7106 H       1  UNL1        0.0000
     33 H           1.6757   -1.8881   -1.8133 H       1  UNL1        0.0000
     34 H           4.2565   -1.8005   -1.3318 H       1  UNL1        0.0000
     35 H           4.8758    1.8605    1.9390 H       1  UNL1        0.0000
     36 H           8.6407    0.2785    1.1100 H       1  UNL1        0.0000
@<TRIPOS>BOND
     1     1     2    1
     2     2     3    2
     3     3     4   ar
     4     4     5   ar
     5     5     6   ar
     6     6     7   ar
     7     7     8    1
     8     8     9   ar
     9     9    10   ar
    10    10    11   ar
    11    11    12   ar
    12     7    13   ar
    13    13    14    2
    14     4    15    1
    15    15    16   ar
    16    16    17   ar
    17    17    18   ar
    18    18    19   ar
    19    18    20    1
    20    20    21   ar
    21    21    22   ar
    22    22    23   ar
    23    23    24   ar
    24    14     1    1
    25    19    15   ar
    26    24    20   ar
    27    13     3   ar
    28    12     8   ar
    29     1    25    1
    30     1    26    1
    31     2    27    1
    32     5    28    1
    33     6    29    1
    34     9    30    1
    35    11    31    1
    36    14    32    1
    37    16    33    1
    38    17    34    1
    39    21    35    1
    40    23    36    1
