@<TRIPOS>MOLECULE
*****
 44 50 0 0 0
SMALL
GASTEIGER

@<TRIPOS>ATOM
      1 SI         -1.4874    1.9751   -2.8915 Si      1  UNL1        0.0000
      2 C          -2.7309    1.3451   -1.6556 C.2     1  UNL1        0.0000
      3 C          -2.1258    0.7492   -0.6066 C.ar    1  UNL1        0.0000
      4 C          -2.8040    0.1318    0.5409 C.ar    1  UNL1        0.0000
      5 C          -2.0136   -0.4040    1.5010 C.ar    1  UNL1        0.0000
      6 C          -0.5537   -0.3886    1.4414 C.ar    1  UNL1        0.0000
      7 C           0.1440    0.1558    0.4166 C.ar    1  UNL1        0.0000
      8 C           1.5623    0.1116    0.4905 C.ar    1  UNL1        0.0000
      9 S           2.5192   -1.3319    0.4561 S.2     1  UNL1        0.0000
     10 C           4.0396   -0.4770    0.5685 C.ar    1  UNL1        0.0000
     11 C           5.3202   -1.1369    0.5730 C.ar    1  UNL1        0.0000
     12 C           6.5072   -0.6468    0.0567 C.ar    1  UNL1        0.0000
     13 C           7.6019   -1.5435    0.2347 C.ar    1  UNL1        0.0000
     14 C           7.2213   -2.6934    0.8860 C.ar    1  UNL1        0.0000
     15 S           5.5583   -2.6868    1.2756 S.2     1  UNL1        0.0000
     16 C           3.7455    0.8458    0.6200 C.ar    1  UNL1        0.0000
     17 C           4.3775    2.1005    0.7259 C.ar    1  UNL1        0.0000
     18 C           3.3368    3.0365    0.7293 C.ar    1  UNL1        0.0000
     19 O           2.0760    2.4809    0.6369 O.2     1  UNL1        0.0000
     20 C           2.4068    1.1594    0.5784 C.ar    1  UNL1        0.0000
     21 C          -0.6383    0.7548   -0.6729 C.ar    1  UNL1        0.0000
     22 C          -0.1338    1.3323   -1.7836 C.2     1  UNL1        0.0000
     23 C          -4.2106    0.0386    0.7202 C.ar    1  UNL1        0.0000
     24 S          -5.1109    0.8144    1.9895 S.2     1  UNL1        0.0000
     25 C          -6.6417    0.1980    1.4315 C.ar    1  UNL1        0.0000
     26 C          -6.4057   -0.5484    0.3323 C.ar    1  UNL1        0.0000
     27 C          -7.0931   -1.3208   -0.6164 C.ar    1  UNL1        0.0000
     28 C          -6.0994   -1.7956   -1.4824 C.ar    1  UNL1        0.0000
     29 O          -4.8196   -1.3835   -1.1595 O.2     1  UNL1        0.0000
     30 C          -5.0894   -0.6338   -0.0534 C.ar    1  UNL1        0.0000
     31 H          -1.4861    3.4547   -2.9934 H       1  UNL1        0.0000
     32 H          -1.5516    1.2545   -4.1862 H       1  UNL1        0.0000
     33 H          -3.7897    1.4605   -1.8231 H       1  UNL1        0.0000
     34 H          -2.4397   -0.8889    2.3763 H       1  UNL1        0.0000
     35 H          -0.0474   -0.8427    2.2902 H       1  UNL1        0.0000
     36 H           6.5928    0.3106   -0.4423 H       1  UNL1        0.0000
     37 H           8.6143   -1.3542   -0.1006 H       1  UNL1        0.0000
     38 H           7.8384   -3.5406    1.1522 H       1  UNL1        0.0000
     39 H           5.4312    2.3261    0.8009 H       1  UNL1        0.0000
     40 H           3.3340    4.1168    0.7959 H       1  UNL1        0.0000
     41 H           0.9046    1.4506   -2.0481 H       1  UNL1        0.0000
     42 H          -7.5636    0.4307    1.9448 H       1  UNL1        0.0000
     43 H          -8.1513   -1.5253   -0.6900 H       1  UNL1        0.0000
     44 H          -6.1450   -2.4278   -2.3596 H       1  UNL1        0.0000
@<TRIPOS>BOND
     1     1     2    1
     2     2     3    2
     3     3     4   ar
     4     4     5   ar
     5     5     6   ar
     6     6     7   ar
     7     7     8    1
     8     8     9   ar
     9     9    10   ar
    10    10    11    1
    11    11    12   ar
    12    12    13   ar
    13    13    14   ar
    14    14    15   ar
    15    10    16   ar
    16    16    17   ar
    17    17    18   ar
    18    18    19   ar
    19    19    20   ar
    20     7    21   ar
    21    21    22    2
    22     4    23    1
    23    23    24   ar
    24    24    25   ar
    25    25    26   ar
    26    26    27   ar
    27    27    28   ar
    28    28    29   ar
    29    29    30   ar
    30    22     1    1
    31    30    23   ar
    32    21     3   ar
    33    30    26   ar
    34    20     8   ar
    35    15    11   ar
    36    20    16   ar
    37     1    31    1
    38     1    32    1
    39     2    33    1
    40     5    34    1
    41     6    35    1
    42    12    36    1
    43    13    37    1
    44    14    38    1
    45    17    39    1
    46    18    40    1
    47    22    41    1
    48    25    42    1
    49    27    43    1
    50    28    44    1
