@<TRIPOS>MOLECULE
*****
 42 47 0 0 0
SMALL
GASTEIGER

@<TRIPOS>ATOM
      1 SI         -1.6022   -3.5878    0.4288 Si      1  UNL1        0.0000
      2 C          -2.8958   -2.3495   -0.1007 C.2     1  UNL1        0.0000
      3 C          -2.3693   -1.1145   -0.2418 C.ar    1  UNL1        0.0000
      4 C          -3.0990    0.0964   -0.6461 C.ar    1  UNL1        0.0000
      5 C          -2.3735    1.2312   -0.7794 C.ar    1  UNL1        0.0000
      6 C          -0.9365    1.3017   -0.5256 C.ar    1  UNL1        0.0000
      7 C          -0.2001    0.2354   -0.1368 C.ar    1  UNL1        0.0000
      8 C           1.1928    0.4510    0.0783 C.ar    1  UNL1        0.0000
      9 S           2.3923   -0.1589   -1.0378 S.2     1  UNL1        0.0000
     10 C           3.7384    0.4790   -0.1414 C.ar    1  UNL1        0.0000
     11 C           5.1246    0.3191   -0.5446 C.ar    1  UNL1        0.0000
     12 N           5.3667   -0.4571   -1.6051 N.ar    1  UNL1        0.0000
     13 C           6.6522   -0.5628   -1.9270 C.ar    1  UNL1        0.0000
     14 N           7.6680    0.0211   -1.2974 N.ar    1  UNL1        0.0000
     15 C           7.3002    0.7675   -0.2593 C.ar    1  UNL1        0.0000
     16 N           6.0555    0.9571    0.1654 N.ar    1  UNL1        0.0000
     17 C           3.2386    1.1149    0.9386 C.ar    1  UNL1        0.0000
     18 O           3.9265    1.7619    1.9230 O.2     1  UNL1        0.0000
     19 C           2.8763    2.1837    2.7155 C.ar    1  UNL1        0.0000
     20 C           1.6142    1.8122    2.2402 C.ar    1  UNL1        0.0000
     21 C           1.8687    1.1009    1.0556 C.ar    1  UNL1        0.0000
     22 C          -0.9065   -1.0400    0.0270 C.ar    1  UNL1        0.0000
     23 C          -0.3475   -2.2093    0.4028 C.2     1  UNL1        0.0000
     24 C          -4.4988    0.1965   -0.8913 C.ar    1  UNL1        0.0000
     25 C          -5.2605    0.6774   -1.9399 C.ar    1  UNL1        0.0000
     26 C          -6.6244    0.5260   -1.5890 C.ar    1  UNL1        0.0000
     27 C          -6.6637   -0.0329   -0.3319 C.ar    1  UNL1        0.0000
     28 N          -5.3718   -0.2239    0.0853 N.ar    1  UNL1        0.0000
     29 H          -1.8534   -4.0987    1.7980 H       1  UNL1        0.0000
     30 H          -1.3452   -4.6188   -0.6044 H       1  UNL1        0.0000
     31 H          -3.9151   -2.6549   -0.2739 H       1  UNL1        0.0000
     32 H          -2.8456    2.1674   -1.0690 H       1  UNL1        0.0000
     33 H          -0.4805    2.2782   -0.6732 H       1  UNL1        0.0000
     34 H           6.8950   -1.1834   -2.7830 H       1  UNL1        0.0000
     35 H           8.0887    1.2684    0.2921 H       1  UNL1        0.0000
     36 H           3.1861    2.7398    3.5907 H       1  UNL1        0.0000
     37 H           0.6650    2.0348    2.7062 H       1  UNL1        0.0000
     38 H           0.6867   -2.3952    0.6456 H       1  UNL1        0.0000
     39 H          -4.8731    1.0864   -2.8642 H       1  UNL1        0.0000
     40 H          -7.4832    0.7979   -2.1888 H       1  UNL1        0.0000
     41 H          -7.4959   -0.3080    0.3018 H       1  UNL1        0.0000
     42 H          -5.0953   -0.6104    0.9783 H       1  UNL1        0.0000
@<TRIPOS>BOND
     1     1     2    1
     2     2     3    2
     3     3     4   ar
     4     4     5   ar
     5     5     6   ar
     6     6     7   ar
     7     7     8    1
     8     8     9   ar
     9     9    10   ar
    10    10    11    1
    11    11    12   ar
    12    12    13   ar
    13    13    14   ar
    14    14    15   ar
    15    15    16   ar
    16    10    17   ar
    17    17    18   ar
    18    18    19   ar
    19    19    20   ar
    20    20    21   ar
    21     7    22   ar
    22    22    23    2
    23     4    24    1
    24    24    25   ar
    25    25    26   ar
    26    26    27   ar
    27    27    28   ar
    28    23     1    1
    29    28    24   ar
    30    22     3   ar
    31    21     8   ar
    32    16    11   ar
    33    21    17   ar
    34     1    29    1
    35     1    30    1
    36     2    31    1
    37     5    32    1
    38     6    33    1
    39    13    34    1
    40    15    35    1
    41    19    36    1
    42    20    37    1
    43    23    38    1
    44    25    39    1
    45    26    40    1
    46    27    41    1
    47    28    42    1
