@<TRIPOS>MOLECULE
*****
 44 50 0 0 0
SMALL
GASTEIGER

@<TRIPOS>ATOM
      1 SI         -1.6991   -1.8946   -3.0256 Si      1  UNL1        0.0000
      2 C          -2.7717   -1.5474   -1.5365 C.2     1  UNL1        0.0000
      3 C          -2.0632   -0.9735   -0.5418 C.ar    1  UNL1        0.0000
      4 C          -2.5852   -0.5737    0.7697 C.ar    1  UNL1        0.0000
      5 C          -1.7175    0.0162    1.6257 C.ar    1  UNL1        0.0000
      6 C          -0.3107    0.2491    1.3054 C.ar    1  UNL1        0.0000
      7 C           0.2449   -0.1053    0.1237 C.ar    1  UNL1        0.0000
      8 C           1.6253    0.1933   -0.0685 C.ar    1  UNL1        0.0000
      9 S           2.8603   -0.9174    0.4111 S.2     1  UNL1        0.0000
     10 C           4.1473    0.1014   -0.1297 C.ar    1  UNL1        0.0000
     11 C           5.5444   -0.2856   -0.0092 C.ar    1  UNL1        0.0000
     12 N           5.8696   -1.0842    1.0122 N.ar    1  UNL1        0.0000
     13 C           7.1572   -1.4088    1.0628 C.ar    1  UNL1        0.0000
     14 N           8.0976   -1.0129    0.2080 N.ar    1  UNL1        0.0000
     15 C           7.6477   -0.2241   -0.7660 C.ar    1  UNL1        0.0000
     16 N           6.3904    0.1726   -0.9336 N.ar    1  UNL1        0.0000
     17 C           3.6424    1.2606   -0.6606 C.ar    1  UNL1        0.0000
     18 S           4.4265    2.7342   -1.3709 S.2     1  UNL1        0.0000
     19 C           2.7886    3.3253   -1.6014 C.ar    1  UNL1        0.0000
     20 C           1.7604    2.4817   -1.1706 C.ar    1  UNL1        0.0000
     21 C           2.2464    1.2702   -0.6125 C.ar    1  UNL1        0.0000
     22 C          -0.6307   -0.7397   -0.8665 C.ar    1  UNL1        0.0000
     23 C          -0.2606   -1.1509   -2.0974 C.2     1  UNL1        0.0000
     24 C          -3.9289   -0.7370    1.2177 C.ar    1  UNL1        0.0000
     25 S          -4.5675   -2.3194    1.6278 S.2     1  UNL1        0.0000
     26 C          -6.1342   -1.7096    2.0543 C.ar    1  UNL1        0.0000
     27 C          -6.1122   -0.3768    1.8791 C.ar    1  UNL1        0.0000
     28 O          -7.1402    0.4864    2.1012 O.2     1  UNL1        0.0000
     29 C          -6.5237    1.6750    1.7511 C.ar    1  UNL1        0.0000
     30 C          -5.1917    1.5321    1.3397 C.ar    1  UNL1        0.0000
     31 C          -4.9286    0.1535    1.4311 C.ar    1  UNL1        0.0000
     32 H          -1.5259   -3.3452   -3.2760 H       1  UNL1        0.0000
     33 H          -2.0906   -1.0812   -4.2017 H       1  UNL1        0.0000
     34 H          -3.8191   -1.8046   -1.5348 H       1  UNL1        0.0000
     35 H          -2.0359    0.3424    2.6145 H       1  UNL1        0.0000
     36 H           0.2798    0.7254    2.0841 H       1  UNL1        0.0000
     37 H           7.4698   -2.0563    1.8760 H       1  UNL1        0.0000
     38 H           8.3741    0.1272   -1.4916 H       1  UNL1        0.0000
     39 H           2.6770    4.3009   -2.0567 H       1  UNL1        0.0000
     40 H           0.7133    2.7476   -1.2609 H       1  UNL1        0.0000
     41 H           0.7188   -1.0852   -2.5448 H       1  UNL1        0.0000
     42 H          -6.9482   -2.3323    2.3953 H       1  UNL1        0.0000
     43 H          -7.1633    2.5433    1.8454 H       1  UNL1        0.0000
     44 H          -4.5330    2.3274    1.0217 H       1  UNL1        0.0000
@<TRIPOS>BOND
     1     1     2    1
     2     2     3    2
     3     3     4   ar
     4     4     5   ar
     5     5     6   ar
     6     6     7   ar
     7     7     8    1
     8     8     9   ar
     9     9    10   ar
    10    10    11    1
    11    11    12   ar
    12    12    13   ar
    13    13    14   ar
    14    14    15   ar
    15    15    16   ar
    16    10    17   ar
    17    17    18   ar
    18    18    19   ar
    19    19    20   ar
    20    20    21   ar
    21     7    22   ar
    22    22    23    2
    23     4    24    1
    24    24    25   ar
    25    25    26   ar
    26    26    27   ar
    27    27    28   ar
    28    28    29   ar
    29    29    30   ar
    30    30    31   ar
    31    23     1    1
    32    31    24   ar
    33    22     3   ar
    34    31    27   ar
    35    21     8   ar
    36    16    11   ar
    37    21    17   ar
    38     1    32    1
    39     1    33    1
    40     2    34    1
    41     5    35    1
    42     6    36    1
    43    13    37    1
    44    15    38    1
    45    19    39    1
    46    20    40    1
    47    23    41    1
    48    26    42    1
    49    29    43    1
    50    30    44    1
