@<TRIPOS>MOLECULE
*****
 45 51 0 0 0
SMALL
GASTEIGER

@<TRIPOS>ATOM
      1 SI          3.2125    0.8188    3.6262 Si      1  UNL1        0.0000
      2 C           4.2561    0.9996    2.0879 C.2     1  UNL1        0.0000
      3 C           3.5518    0.6948    0.9782 C.ar    1  UNL1        0.0000
      4 C           4.0561    0.7339   -0.3986 C.ar    1  UNL1        0.0000
      5 C           3.1852    0.4183   -1.3854 C.ar    1  UNL1        0.0000
      6 C           1.7987    0.0302   -1.1331 C.ar    1  UNL1        0.0000
      7 C           1.2639   -0.0391    0.1085 C.ar    1  UNL1        0.0000
      8 C          -0.0933   -0.4475    0.2179 C.ar    1  UNL1        0.0000
      9 S          -1.4341    0.5856   -0.1040 S.2     1  UNL1        0.0000
     10 C          -2.5967   -0.6303    0.2796 C.ar    1  UNL1        0.0000
     11 C          -4.0075   -0.3784    0.2173 C.ar    1  UNL1        0.0000
     12 S          -4.9990   -0.5647    1.6293 S.2     1  UNL1        0.0000
     13 C          -6.4394   -0.0941    0.8054 C.ar    1  UNL1        0.0000
     14 C          -6.1453    0.1829   -0.4933 C.ar    1  UNL1        0.0000
     15 SI         -7.1121    0.7376   -2.0109 Si      1  UNL1        0.0000
     16 C          -5.4776    0.6779   -2.9984 C.2     1  UNL1        0.0000
     17 C          -4.4413    0.2978   -2.2188 C.2     1  UNL1        0.0000
     18 C          -4.7765    0.0271   -0.8494 C.ar    1  UNL1        0.0000
     19 C          -1.9204   -1.7515    0.6347 C.ar    1  UNL1        0.0000
     20 C          -2.3125   -3.0577    1.0346 C.ar    1  UNL1        0.0000
     21 C          -1.2216   -3.8935    1.2961 C.ar    1  UNL1        0.0000
     22 S           0.3715   -3.1865    1.0779 S.2     1  UNL1        0.0000
     23 C          -0.5253   -1.6864    0.6107 C.ar    1  UNL1        0.0000
     24 C           2.1401    0.3043    1.2344 C.ar    1  UNL1        0.0000
     25 C           1.7852    0.3140    2.5362 C.2     1  UNL1        0.0000
     26 C           5.3820    1.0880   -0.7873 C.ar    1  UNL1        0.0000
     27 C           5.8680    2.2694   -1.3231 C.ar    1  UNL1        0.0000
     28 N           7.2210    2.3049   -1.6043 N.ar    1  UNL1        0.0000
     29 C           7.7553    1.1502   -1.2764 C.ar    1  UNL1        0.0000
     30 S           6.6905   -0.0244   -0.6268 S.2     1  UNL1        0.0000
     31 H           2.9783    2.1168    4.3032 H       1  UNL1        0.0000
     32 H           3.6806   -0.2839    4.4998 H       1  UNL1        0.0000
     33 H           5.2860    1.3137    2.1482 H       1  UNL1        0.0000
     34 H           3.4898    0.4260   -2.4298 H       1  UNL1        0.0000
     35 H           1.2102   -0.2170   -2.0138 H       1  UNL1        0.0000
     36 H          -7.3864   -0.0562    1.3265 H       1  UNL1        0.0000
     37 H          -7.6330    2.1241   -1.9227 H       1  UNL1        0.0000
     38 H          -8.0752   -0.2735   -2.5135 H       1  UNL1        0.0000
     39 H          -5.4543    0.9267   -4.0471 H       1  UNL1        0.0000
     40 H          -3.4297    0.1985   -2.5955 H       1  UNL1        0.0000
     41 H          -3.3373   -3.3953    1.1332 H       1  UNL1        0.0000
     42 H          -1.2613   -4.9262    1.6152 H       1  UNL1        0.0000
     43 H           0.8212    0.0736    2.9558 H       1  UNL1        0.0000
     44 H           5.2661    3.1468   -1.5291 H       1  UNL1        0.0000
     45 H           8.8097    0.9449   -1.4068 H       1  UNL1        0.0000
@<TRIPOS>BOND
     1     1     2    1
     2     2     3    2
     3     3     4   ar
     4     4     5   ar
     5     5     6   ar
     6     6     7   ar
     7     7     8    1
     8     8     9   ar
     9     9    10   ar
    10    10    11    1
    11    11    12   ar
    12    12    13   ar
    13    13    14   ar
    14    14    15    1
    15    15    16    1
    16    16    17    2
    17    17    18    1
    18    10    19   ar
    19    19    20   ar
    20    20    21   ar
    21    21    22   ar
    22    22    23   ar
    23     7    24   ar
    24    24    25    2
    25     4    26    1
    26    26    27   ar
    27    27    28   ar
    28    28    29   ar
    29    29    30   ar
    30    25     1    1
    31    30    26   ar
    32    24     3   ar
    33    23     8   ar
    34    18    11   ar
    35    23    19   ar
    36    18    14   ar
    37     1    31    1
    38     1    32    1
    39     2    33    1
    40     5    34    1
    41     6    35    1
    42    13    36    1
    43    15    37    1
    44    15    38    1
    45    16    39    1
    46    17    40    1
    47    20    41    1
    48    21    42    1
    49    25    43    1
    50    27    44    1
    51    29    45    1
