@<TRIPOS>MOLECULE
*****
 46 52 0 0 0
SMALL
GASTEIGER

@<TRIPOS>ATOM
      1 SI         -1.7877   -3.1009    1.4632 Si      1  UNL1        0.0000
      2 C          -0.3845   -1.9974    0.9250 C.2     1  UNL1        0.0000
      3 C          -0.8340   -0.9385    0.2198 C.ar    1  UNL1        0.0000
      4 C          -0.0022    0.1208   -0.3611 C.ar    1  UNL1        0.0000
      5 C          -0.6391    1.1028   -1.0407 C.ar    1  UNL1        0.0000
      6 C          -2.0915    1.1542   -1.1962 C.ar    1  UNL1        0.0000
      7 C          -2.9244    0.2126   -0.6940 C.ar    1  UNL1        0.0000
      8 C          -4.3272    0.3951   -0.8884 C.ar    1  UNL1        0.0000
      9 S          -5.0628    0.2019   -2.4495 S.2     1  UNL1        0.0000
     10 C          -6.6489    0.5386   -1.8652 C.ar    1  UNL1        0.0000
     11 C          -6.6191    0.7829   -0.5233 C.ar    1  UNL1        0.0000
     12 S          -7.9362    1.1823    0.6374 S.2     1  UNL1        0.0000
     13 C          -6.6537    1.2257    1.8415 C.ar    1  UNL1        0.0000
     14 C          -5.3599    0.9588    1.3785 C.ar    1  UNL1        0.0000
     15 C          -5.3247    0.6942   -0.0162 C.ar    1  UNL1        0.0000
     16 C          -2.3103   -0.8945    0.0488 C.ar    1  UNL1        0.0000
     17 C          -2.9673   -1.9282    0.6152 C.2     1  UNL1        0.0000
     18 C           1.4258    0.1751   -0.3003 C.ar    1  UNL1        0.0000
     19 S           2.2148    1.2919    0.7705 S.2     1  UNL1        0.0000
     20 C           3.8170    0.7859    0.3300 C.ar    1  UNL1        0.0000
     21 C           3.7004   -0.2105   -0.6018 C.ar    1  UNL1        0.0000
     22 SI          4.8968   -1.2936   -1.5812 Si      1  UNL1        0.0000
     23 C           3.3834   -2.1338   -2.3964 C.2     1  UNL1        0.0000
     24 C           2.2255   -1.6110   -1.9384 C.2     1  UNL1        0.0000
     25 C           2.3733   -0.5676   -0.9649 C.ar    1  UNL1        0.0000
     26 C           4.9992    1.4093    0.9388 C.ar    1  UNL1        0.0000
     27 N           4.8091    2.3806    1.8342 N.ar    1  UNL1        0.0000
     28 C           5.9287    2.8898    2.3364 C.ar    1  UNL1        0.0000
     29 N           7.1672    2.5171    2.0236 N.ar    1  UNL1        0.0000
     30 C           7.2258    1.5423    1.1203 C.ar    1  UNL1        0.0000
     31 N           6.1879    0.9461    0.5403 N.ar    1  UNL1        0.0000
     32 H          -1.9692   -3.1151    2.9347 H       1  UNL1        0.0000
     33 H          -1.7460   -4.4312    0.8098 H       1  UNL1        0.0000
     34 H           0.6390   -2.2300    1.1739 H       1  UNL1        0.0000
     35 H          -0.0835    1.9110   -1.5111 H       1  UNL1        0.0000
     36 H          -2.4755    2.0135   -1.7414 H       1  UNL1        0.0000
     37 H          -7.5157    0.5414   -2.5113 H       1  UNL1        0.0000
     38 H          -6.9417    1.4559    2.8583 H       1  UNL1        0.0000
     39 H          -4.4946    0.9602    2.0307 H       1  UNL1        0.0000
     40 H          -4.0302   -2.1111    0.6142 H       1  UNL1        0.0000
     41 H           5.6474   -2.2785   -0.7618 H       1  UNL1        0.0000
     42 H           5.6911   -0.5666   -2.6035 H       1  UNL1        0.0000
     43 H           3.5102   -2.9191   -3.1239 H       1  UNL1        0.0000
     44 H           1.2503   -1.9466   -2.2738 H       1  UNL1        0.0000
     45 H           5.8227    3.6825    3.0692 H       1  UNL1        0.0000
     46 H           8.2142    1.2017    0.8302 H       1  UNL1        0.0000
@<TRIPOS>BOND
     1     1     2    1
     2     2     3    2
     3     3     4   ar
     4     4     5   ar
     5     5     6   ar
     6     6     7   ar
     7     7     8    1
     8     8     9   ar
     9     9    10   ar
    10    10    11   ar
    11    11    12   ar
    12    12    13   ar
    13    13    14   ar
    14    14    15   ar
    15     7    16   ar
    16    16    17    2
    17     4    18    1
    18    18    19   ar
    19    19    20   ar
    20    20    21   ar
    21    21    22    1
    22    22    23    1
    23    23    24    2
    24    24    25    1
    25    20    26    1
    26    26    27   ar
    27    27    28   ar
    28    28    29   ar
    29    29    30   ar
    30    30    31   ar
    31    17     1    1
    32    25    18   ar
    33    31    26   ar
    34    16     3   ar
    35    25    21   ar
    36    15     8   ar
    37    15    11   ar
    38     1    32    1
    39     1    33    1
    40     2    34    1
    41     5    35    1
    42     6    36    1
    43    10    37    1
    44    13    38    1
    45    14    39    1
    46    17    40    1
    47    22    41    1
    48    22    42    1
    49    23    43    1
    50    24    44    1
    51    28    45    1
    52    30    46    1
