@<TRIPOS>MOLECULE
*****
 34 39 0 0 0
SMALL
GASTEIGER

@<TRIPOS>ATOM
      1 SI         -2.1889    3.0616    1.3996 Si      1  UNL1        0.0000
      2 C          -0.5965    2.3015    0.7919 C.2     1  UNL1        0.0000
      3 C          -0.7488    1.0075    0.4527 C.ar    1  UNL1        0.0000
      4 C           0.2314    0.1056   -0.0738 C.ar    1  UNL1        0.0000
      5 C          -0.2297   -1.0786   -0.6373 C.ar    1  UNL1        0.0000
      6 O           0.7699   -1.7965   -1.2167 O.2     1  UNL1        0.0000
      7 C           1.9256   -1.1096   -0.9679 C.ar    1  UNL1        0.0000
      8 C           3.2068   -1.5071   -1.3985 C.ar    1  UNL1        0.0000
      9 C           4.3310   -0.7445   -1.0361 C.ar    1  UNL1        0.0000
     10 C           4.0278    0.3396   -0.2113 C.ar    1  UNL1        0.0000
     11 C           5.0203    1.1480    0.2958 C.ar    1  UNL1        0.0000
     12 S           4.3874    2.3511    1.3571 S.2     1  UNL1        0.0000
     13 C           2.7693    1.7912    1.1479 C.ar    1  UNL1        0.0000
     14 C           2.7506    0.7663    0.2495 C.ar    1  UNL1        0.0000
     15 C           1.6211    0.0130   -0.2093 C.ar    1  UNL1        0.0000
     16 C          -1.5932   -1.5871   -0.6433 C.ar    1  UNL1        0.0000
     17 N          -1.8157   -2.8013   -1.2024 N.ar    1  UNL1        0.0000
     18 C          -3.0819   -3.2602   -1.1435 C.ar    1  UNL1        0.0000
     19 C          -4.1285   -2.5686   -0.5507 C.ar    1  UNL1        0.0000
     20 C          -3.8728   -1.3199    0.0176 C.ar    1  UNL1        0.0000
     21 C          -2.5794   -0.7965   -0.0212 C.ar    1  UNL1        0.0000
     22 C          -2.1777    0.5342    0.5189 C.ar    1  UNL1        0.0000
     23 C          -3.0435    1.4494    1.0051 C.2     1  UNL1        0.0000
     24 H          -2.6543    4.1713    0.5348 H       1  UNL1        0.0000
     25 H          -2.1610    3.3436    2.8542 H       1  UNL1        0.0000
     26 H           0.2837    2.9123    0.7126 H       1  UNL1        0.0000
     27 H           3.3168   -2.4033   -2.0017 H       1  UNL1        0.0000
     28 H           5.3316   -1.0210   -1.3459 H       1  UNL1        0.0000
     29 H           6.0876    1.0965    0.1289 H       1  UNL1        0.0000
     30 H           1.9806    2.2398    1.7267 H       1  UNL1        0.0000
     31 H          -3.2414   -4.2342   -1.5979 H       1  UNL1        0.0000
     32 H          -5.1265   -2.9937   -0.5329 H       1  UNL1        0.0000
     33 H          -4.6894   -0.7758    0.4806 H       1  UNL1        0.0000
     34 H          -4.1120    1.3655    1.1164 H       1  UNL1        0.0000
@<TRIPOS>BOND
     1     1     2    1
     2     2     3    2
     3     3     4   ar
     4     4     5   ar
     5     5     6   ar
     6     6     7   ar
     7     7     8   ar
     8     8     9   ar
     9     9    10   ar
    10    10    11   ar
    11    11    12   ar
    12    12    13   ar
    13    13    14   ar
    14    14    15   ar
    15     5    16   ar
    16    16    17   ar
    17    17    18   ar
    18    18    19   ar
    19    19    20   ar
    20    20    21   ar
    21    21    22   ar
    22    22    23    2
    23    23     1    1
    24    22     3   ar
    25     4    15   ar
    26    21    16   ar
    27    15     7   ar
    28    14    10   ar
    29     1    24    1
    30     1    25    1
    31     2    26    1
    32     8    27    1
    33     9    28    1
    34    11    29    1
    35    13    30    1
    36    18    31    1
    37    19    32    1
    38    20    33    1
    39    23    34    1
