@<TRIPOS>MOLECULE
*****
 42 48 0 0 0
SMALL
GASTEIGER

@<TRIPOS>ATOM
      1 SI          1.4572   -1.1538   -0.9202 Si      1  UNL1        0.0000
      2 C           2.6653   -0.4142    0.3024 C.2     1  UNL1        0.0000
      3 C           2.0334    0.2844    1.2638 C.2     1  UNL1        0.0000
      4 C           0.5722    0.3062    1.1108 C.ar    1  UNL1        0.0000
      5 N          -0.1539    0.9878    2.0006 N.ar    1  UNL1        0.0000
      6 C          -1.5001    0.9727    1.8060 C.ar    1  UNL1        0.0000
      7 C          -2.2154    0.3284    0.7755 C.ar    1  UNL1        0.0000
      8 C          -3.6991    0.3958    0.6806 C.ar    1  UNL1        0.0000
      9 C          -4.5159    1.0994    1.6019 C.ar    1  UNL1        0.0000
     10 C          -5.9159    1.1566    1.5025 C.ar    1  UNL1        0.0000
     11 C          -6.5789    0.5088    0.4694 C.ar    1  UNL1        0.0000
     12 C          -5.8449   -0.2000   -0.4700 C.ar    1  UNL1        0.0000
     13 C          -4.4329   -0.2538   -0.3639 C.ar    1  UNL1        0.0000
     14 C          -3.5831   -0.9376   -1.2510 C.ar    1  UNL1        0.0000
     15 C          -3.9505   -1.6624   -2.3564 C.ar    1  UNL1        0.0000
     16 O          -2.8421   -2.1754   -2.9588 O.2     1  UNL1        0.0000
     17 C          -1.7604   -1.7731   -2.2287 C.ar    1  UNL1        0.0000
     18 C          -2.1616   -1.0046   -1.1625 C.ar    1  UNL1        0.0000
     19 C          -1.3712   -0.3854   -0.1555 C.ar    1  UNL1        0.0000
     20 C           0.0345   -0.3895    0.0219 C.ar    1  UNL1        0.0000
     21 C           4.0615   -0.5742    0.2172 C.ar    1  UNL1        0.0000
     22 S           4.8719   -2.1086    0.0654 S.2     1  UNL1        0.0000
     23 C           6.4589   -1.4026    0.0544 C.ar    1  UNL1        0.0000
     24 C           6.3094   -0.0677    0.1590 C.ar    1  UNL1        0.0000
     25 C           7.0722    1.1237    0.2099 C.ar    1  UNL1        0.0000
     26 C           6.1590    2.1935    0.3216 C.ar    1  UNL1        0.0000
     27 N           4.8402    1.7435    0.3453 N.ar    1  UNL1        0.0000
     28 C           5.0132    0.3902    0.2490 C.ar    1  UNL1        0.0000
     29 H           1.5801   -0.5781   -2.2840 H       1  UNL1        0.0000
     30 H           1.4003   -2.6376   -0.8899 H       1  UNL1        0.0000
     31 H           2.4960    0.7913    2.0994 H       1  UNL1        0.0000
     32 H          -2.0135    1.5451    2.5735 H       1  UNL1        0.0000
     33 H          -4.0802    1.6344    2.4419 H       1  UNL1        0.0000
     34 H          -6.4847    1.7142    2.2436 H       1  UNL1        0.0000
     35 H          -7.6621    0.5565    0.3979 H       1  UNL1        0.0000
     36 H          -6.3664   -0.7062   -1.2771 H       1  UNL1        0.0000
     37 H          -4.8886   -1.9059   -2.8344 H       1  UNL1        0.0000
     38 H          -0.8190   -2.1272   -2.6186 H       1  UNL1        0.0000
     39 H           7.3496   -2.0081   -0.0282 H       1  UNL1        0.0000
     40 H           8.1488    1.2226    0.1702 H       1  UNL1        0.0000
     41 H           6.3491    3.2573    0.3864 H       1  UNL1        0.0000
     42 H           3.9679    2.2537    0.4141 H       1  UNL1        0.0000
@<TRIPOS>BOND
     1     1     2    1
     2     2     3    2
     3     3     4    1
     4     4     5   ar
     5     5     6   ar
     6     6     7   ar
     7     7     8   ar
     8     8     9   ar
     9     9    10   ar
    10    10    11   ar
    11    11    12   ar
    12    12    13   ar
    13    13    14   ar
    14    14    15   ar
    15    15    16   ar
    16    16    17   ar
    17    17    18   ar
    18    18    19   ar
    19    19    20   ar
    20     2    21    1
    21    21    22   ar
    22    22    23   ar
    23    23    24   ar
    24    24    25   ar
    25    25    26   ar
    26    26    27   ar
    27    27    28   ar
    28    20     1    1
    29    28    21   ar
    30    20     4   ar
    31    28    24   ar
    32    19     7   ar
    33    13     8   ar
    34    18    14   ar
    35     1    29    1
    36     1    30    1
    37     3    31    1
    38     6    32    1
    39     9    33    1
    40    10    34    1
    41    11    35    1
    42    12    36    1
    43    15    37    1
    44    17    38    1
    45    23    39    1
    46    25    40    1
    47    26    41    1
    48    27    42    1
