@<TRIPOS>MOLECULE
*****
 39 44 0 0 0
SMALL
GASTEIGER

@<TRIPOS>ATOM
      1 SI          1.2204    3.3255    1.2523 Si      1  UNL1        0.0000
      2 C           0.1097    1.8486    1.0091 C.2     1  UNL1        0.0000
      3 C           0.7705    0.7856    0.4990 C.ar    1  UNL1        0.0000
      4 C           0.1674   -0.5566    0.2404 C.ar    1  UNL1        0.0000
      5 C          -1.2369   -0.7963    0.0144 C.ar    1  UNL1        0.0000
      6 C          -1.6638   -2.0962    0.3581 C.ar    1  UNL1        0.0000
      7 N          -0.8353   -3.0969    0.6728 N.ar    1  UNL1        0.0000
      8 C           0.4921   -2.8718    0.6116 C.ar    1  UNL1        0.0000
      9 C           1.0758   -1.6379    0.3740 C.ar    1  UNL1        0.0000
     10 C           2.5485   -1.4520    0.2324 C.ar    1  UNL1        0.0000
     11 C           3.4370   -2.5154    0.0421 C.ar    1  UNL1        0.0000
     12 N           4.7744   -2.4003   -0.1493 N.ar    1  UNL1        0.0000
     13 C           5.2757   -1.1534   -0.1735 C.ar    1  UNL1        0.0000
     14 C           4.5053   -0.0185   -0.0080 C.ar    1  UNL1        0.0000
     15 C           3.1287   -0.1642    0.2037 C.ar    1  UNL1        0.0000
     16 C           2.2353    0.9870    0.4349 C.ar    1  UNL1        0.0000
     17 C           2.6500    2.2333    0.7492 C.2     1  UNL1        0.0000
     18 C          -3.0107   -2.4015    0.3834 C.ar    1  UNL1        0.0000
     19 C          -3.9828   -1.4789    0.0141 C.ar    1  UNL1        0.0000
     20 C          -3.6098   -0.2356   -0.4839 C.ar    1  UNL1        0.0000
     21 C          -4.6019    0.6391   -0.9603 C.ar    1  UNL1        0.0000
     22 C          -4.2633    1.8460   -1.5630 C.ar    1  UNL1        0.0000
     23 C          -2.9272    2.1746   -1.7185 C.ar    1  UNL1        0.0000
     24 C          -1.9387    1.3141   -1.2302 C.ar    1  UNL1        0.0000
     25 C          -2.2363    0.1106   -0.5413 C.ar    1  UNL1        0.0000
     26 H           0.9618    4.3997    0.2635 H       1  UNL1        0.0000
     27 H           1.3100    3.7524    2.6688 H       1  UNL1        0.0000
     28 H          -0.9340    1.9146    1.2734 H       1  UNL1        0.0000
     29 H           1.0792   -3.7660    0.7975 H       1  UNL1        0.0000
     30 H           3.1016   -3.5480    0.0111 H       1  UNL1        0.0000
     31 H           6.3476   -1.0852   -0.3359 H       1  UNL1        0.0000
     32 H           4.9824    0.9533   -0.0457 H       1  UNL1        0.0000
     33 H           3.6587    2.6027    0.8310 H       1  UNL1        0.0000
     34 H          -3.3187   -3.3971    0.6970 H       1  UNL1        0.0000
     35 H          -5.0286   -1.7741    0.0615 H       1  UNL1        0.0000
     36 H          -5.6545    0.3714   -0.8881 H       1  UNL1        0.0000
     37 H          -5.0392    2.5072   -1.9388 H       1  UNL1        0.0000
     38 H          -2.6443    3.0916   -2.2287 H       1  UNL1        0.0000
     39 H          -0.9056    1.5887   -1.4302 H       1  UNL1        0.0000
@<TRIPOS>BOND
     1     1     2    1
     2     2     3    2
     3     3     4   ar
     4     4     5   ar
     5     5     6   ar
     6     6     7   ar
     7     7     8   ar
     8     8     9   ar
     9     9    10   ar
    10    10    11   ar
    11    11    12   ar
    12    12    13   ar
    13    13    14   ar
    14    14    15   ar
    15    15    16   ar
    16    16    17    2
    17     6    18   ar
    18    18    19   ar
    19    19    20   ar
    20    20    21   ar
    21    21    22   ar
    22    22    23   ar
    23    23    24   ar
    24    24    25   ar
    25    17     1    1
    26    25    20   ar
    27    16     3   ar
    28     9     4   ar
    29    15    10   ar
    30    25     5   ar
    31     1    26    1
    32     1    27    1
    33     2    28    1
    34     8    29    1
    35    11    30    1
    36    13    31    1
    37    14    32    1
    38    17    33    1
    39    18    34    1
    40    19    35    1
    41    21    36    1
    42    22    37    1
    43    23    38    1
    44    24    39    1
