@<TRIPOS>MOLECULE
*****
 33 38 0 0 0
SMALL
GASTEIGER

@<TRIPOS>ATOM
      1 SI         -2.1998    3.1922    0.9769 Si      1  UNL1        0.0000
      2 C          -3.1811    1.6228    0.7996 C.2     1  UNL1        0.0000
      3 C          -2.3948    0.5943    0.4213 C.ar    1  UNL1        0.0000
      4 C          -2.8511   -0.7288    0.0674 C.ar    1  UNL1        0.0000
      5 C          -4.1676   -1.2695    0.1136 C.ar    1  UNL1        0.0000
      6 C          -4.1994   -2.5733   -0.3404 C.ar    1  UNL1        0.0000
      7 S          -2.6494   -3.1335   -0.8194 S.2     1  UNL1        0.0000
      8 C          -1.9371   -1.6472   -0.4195 C.ar    1  UNL1        0.0000
      9 C          -0.5462   -1.3212   -0.5214 C.ar    1  UNL1        0.0000
     10 N           0.4530   -2.1311   -0.9868 N.ar    1  UNL1        0.0000
     11 C           1.6731   -1.5045   -0.8311 C.ar    1  UNL1        0.0000
     12 C           2.9830   -1.9610   -1.1434 C.ar    1  UNL1        0.0000
     13 C           4.1160   -1.1800   -0.8450 C.ar    1  UNL1        0.0000
     14 C           3.7783    0.0032   -0.2066 C.ar    1  UNL1        0.0000
     15 C           4.6747    0.9284    0.2697 C.ar    1  UNL1        0.0000
     16 O           4.0075    1.9428    0.9066 O.2     1  UNL1        0.0000
     17 C           2.6643    1.6628    0.8315 C.ar    1  UNL1        0.0000
     18 C           2.5088    0.5100    0.1269 C.ar    1  UNL1        0.0000
     19 C           1.3723   -0.2718   -0.2450 C.ar    1  UNL1        0.0000
     20 C          -0.0138   -0.0957   -0.1308 C.ar    1  UNL1        0.0000
     21 C          -0.9292    0.9390    0.2802 C.ar    1  UNL1        0.0000
     22 C          -0.6759    2.2499    0.4583 C.2     1  UNL1        0.0000
     23 H          -2.1243    3.6589    2.3818 H       1  UNL1        0.0000
     24 H          -2.5942    4.2215   -0.0141 H       1  UNL1        0.0000
     25 H          -4.2509    1.6147    0.9305 H       1  UNL1        0.0000
     26 H          -5.0492   -0.7419    0.4543 H       1  UNL1        0.0000
     27 H          -5.0576   -3.2265   -0.4171 H       1  UNL1        0.0000
     28 H           0.3199   -3.0652   -1.3476 H       1  UNL1        0.0000
     29 H           3.1187   -2.9346   -1.6103 H       1  UNL1        0.0000
     30 H           5.1244   -1.5057   -1.0617 H       1  UNL1        0.0000
     31 H           5.7520    1.0136    0.2702 H       1  UNL1        0.0000
     32 H           2.0292    2.3620    1.3489 H       1  UNL1        0.0000
     33 H           0.2467    2.7753    0.3026 H       1  UNL1        0.0000
@<TRIPOS>BOND
     1     1     2    1
     2     2     3    2
     3     3     4   ar
     4     4     5   ar
     5     5     6   ar
     6     6     7   ar
     7     7     8   ar
     8     8     9   ar
     9     9    10   ar
    10    10    11   ar
    11    11    12   ar
    12    12    13   ar
    13    13    14   ar
    14    14    15   ar
    15    15    16   ar
    16    16    17   ar
    17    17    18   ar
    18    18    19   ar
    19    19    20   ar
    20    20    21   ar
    21    21    22    2
    22    22     1    1
    23    21     3   ar
    24     8     4   ar
    25    20     9   ar
    26    19    11   ar
    27    18    14   ar
    28     1    23    1
    29     1    24    1
    30     2    25    1
    31     5    26    1
    32     6    27    1
    33    10    28    1
    34    12    29    1
    35    13    30    1
    36    15    31    1
    37    17    32    1
    38    22    33    1
