@<TRIPOS>MOLECULE
*****
 29 33 0 0 0
SMALL
GASTEIGER

@<TRIPOS>ATOM
      1 SI         -4.1862    1.7476    0.7086 Si      1  UNL1        0.0000
      2 C          -4.3488   -0.0031    0.0455 C.2     1  UNL1        0.0000
      3 C          -3.1339   -0.5429   -0.1725 C.ar    1  UNL1        0.0000
      4 C          -2.9006   -1.8975   -0.6893 C.ar    1  UNL1        0.0000
      5 C          -1.6442   -2.3617   -0.8790 C.ar    1  UNL1        0.0000
      6 C          -0.5825   -1.4733   -0.5531 C.ar    1  UNL1        0.0000
      7 N           0.7446   -1.8002   -0.6914 N.ar    1  UNL1        0.0000
      8 C           1.4767   -0.7074   -0.2844 C.ar    1  UNL1        0.0000
      9 C           2.7551   -0.2019   -0.1063 C.ar    1  UNL1        0.0000
     10 SI          4.5516   -0.5518   -0.2585 Si      1  UNL1        0.0000
     11 C           4.8849    1.2200    0.4106 C.2     1  UNL1        0.0000
     12 C           3.7357    1.8808    0.6738 C.2     1  UNL1        0.0000
     13 C           2.5900    1.0831    0.3834 C.ar    1  UNL1        0.0000
     14 O           1.2622    1.3924    0.5152 O.2     1  UNL1        0.0000
     15 C           0.6047    0.2700    0.0961 C.ar    1  UNL1        0.0000
     16 C          -0.7051   -0.1816   -0.0613 C.ar    1  UNL1        0.0000
     17 C          -1.9922    0.3623    0.1590 C.ar    1  UNL1        0.0000
     18 C          -2.3306    1.5771    0.6239 C.2     1  UNL1        0.0000
     19 H          -4.6915    1.8635    2.0982 H       1  UNL1        0.0000
     20 H          -4.7166    2.7529   -0.2443 H       1  UNL1        0.0000
     21 H          -5.3122   -0.4580   -0.1168 H       1  UNL1        0.0000
     22 H          -3.7607   -2.5182   -0.9157 H       1  UNL1        0.0000
     23 H          -1.4585   -3.3594   -1.2597 H       1  UNL1        0.0000
     24 H           1.1478   -2.6659   -1.0245 H       1  UNL1        0.0000
     25 H           5.0451   -0.6880   -1.6514 H       1  UNL1        0.0000
     26 H           5.0702   -1.5745    0.6835 H       1  UNL1        0.0000
     27 H           5.8940    1.5783    0.5358 H       1  UNL1        0.0000
     28 H           3.6603    2.8889    1.0573 H       1  UNL1        0.0000
     29 H          -1.6590    2.3685    0.9172 H       1  UNL1        0.0000
@<TRIPOS>BOND
     1     1     2    1
     2     2     3    2
     3     3     4   ar
     4     4     5   ar
     5     5     6   ar
     6     6     7   ar
     7     7     8   ar
     8     8     9   ar
     9     9    10    1
    10    10    11    1
    11    11    12    2
    12    12    13    1
    13    13    14   ar
    14    14    15   ar
    15    15    16   ar
    16    16    17   ar
    17    17    18    2
    18    18     1    1
    19    17     3   ar
    20    16     6   ar
    21    15     8   ar
    22    13     9   ar
    23     1    19    1
    24     1    20    1
    25     2    21    1
    26     4    22    1
    27     5    23    1
    28     7    24    1
    29    10    25    1
    30    10    26    1
    31    11    27    1
    32    12    28    1
    33    18    29    1
