@<TRIPOS>MOLECULE
*****
 37 42 0 0 0
SMALL
GASTEIGER

@<TRIPOS>ATOM
      1 SI          4.5151    1.9000   -0.7682 Si      1  UNL1        0.0000
      2 C           4.9458    0.2348   -0.0512 C.2     1  UNL1        0.0000
      3 C           3.8304   -0.4373    0.2901 C.ar    1  UNL1        0.0000
      4 C           3.8275   -1.6928    1.0165 C.ar    1  UNL1        0.0000
      5 C           2.6526   -2.1993    1.4343 C.ar    1  UNL1        0.0000
      6 C           1.3963   -1.5437    1.0962 C.ar    1  UNL1        0.0000
      7 SI         -0.2408   -2.1649    1.7864 Si      1  UNL1        0.0000
      8 C          -1.1329   -0.8292    0.8070 C.ar    1  UNL1        0.0000
      9 C          -0.1336   -0.1074    0.0525 C.ar    1  UNL1        0.0000
     10 C           1.2856   -0.4282    0.3198 C.ar    1  UNL1        0.0000
     11 C           2.5404    0.2458   -0.0252 C.ar    1  UNL1        0.0000
     12 C           2.7101    1.4969   -0.4971 C.2     1  UNL1        0.0000
     13 C          -0.7460    0.7123   -0.8930 C.ar    1  UNL1        0.0000
     14 C          -0.1994    1.3557   -1.9754 C.ar    1  UNL1        0.0000
     15 N          -1.2132    2.0244   -2.6277 N.ar    1  UNL1        0.0000
     16 C          -2.4220    1.7498   -2.0306 C.ar    1  UNL1        0.0000
     17 C          -2.1673    0.9028   -0.9788 C.ar    1  UNL1        0.0000
     18 C          -3.1251    0.2671   -0.1465 C.ar    1  UNL1        0.0000
     19 C          -4.5241    0.4387   -0.1902 C.ar    1  UNL1        0.0000
     20 C          -5.3151   -0.3086    0.6667 C.ar    1  UNL1        0.0000
     21 C          -4.6846   -1.1974    1.5182 C.ar    1  UNL1        0.0000
     22 N          -3.3433   -1.3854    1.5770 N.ar    1  UNL1        0.0000
     23 C          -2.5451   -0.6620    0.7662 C.ar    1  UNL1        0.0000
     24 H           4.9800    3.0246    0.0793 H       1  UNL1        0.0000
     25 H           4.8559    2.0093   -2.2078 H       1  UNL1        0.0000
     26 H           5.9675   -0.0633    0.1202 H       1  UNL1        0.0000
     27 H           4.7676   -2.1781    1.2521 H       1  UNL1        0.0000
     28 H           2.6357   -3.1236    2.0047 H       1  UNL1        0.0000
     29 H          -0.2951   -1.9801    3.2617 H       1  UNL1        0.0000
     30 H          -0.5162   -3.5498    1.3171 H       1  UNL1        0.0000
     31 H           1.9566    2.2405   -0.6870 H       1  UNL1        0.0000
     32 H           0.8015    1.3903   -2.3779 H       1  UNL1        0.0000
     33 H          -1.0915    2.5875   -3.4596 H       1  UNL1        0.0000
     34 H          -3.3380    2.1513   -2.4412 H       1  UNL1        0.0000
     35 H          -4.9802    1.1380   -0.8827 H       1  UNL1        0.0000
     36 H          -6.3941   -0.2080    0.6681 H       1  UNL1        0.0000
     37 H          -5.2610   -1.8107    2.2059 H       1  UNL1        0.0000
@<TRIPOS>BOND
     1     1     2    1
     2     2     3    2
     3     3     4   ar
     4     4     5   ar
     5     5     6   ar
     6     6     7    1
     7     7     8    1
     8     8     9   ar
     9     9    10    1
    10    10    11   ar
    11    11    12    2
    12     9    13   ar
    13    13    14   ar
    14    14    15   ar
    15    15    16   ar
    16    16    17   ar
    17    17    18   ar
    18    18    19   ar
    19    19    20   ar
    20    20    21   ar
    21    21    22   ar
    22    22    23   ar
    23    12     1    1
    24    17    13   ar
    25    23    18   ar
    26    11     3   ar
    27    10     6   ar
    28    23     8   ar
    29     1    24    1
    30     1    25    1
    31     2    26    1
    32     4    27    1
    33     5    28    1
    34     7    29    1
    35     7    30    1
    36    12    31    1
    37    14    32    1
    38    15    33    1
    39    16    34    1
    40    19    35    1
    41    20    36    1
    42    21    37    1
