@<TRIPOS>MOLECULE
*****
 41 47 0 0 0
SMALL
GASTEIGER

@<TRIPOS>ATOM
      1 SI         -5.1353    2.1489   -0.0870 Si      1  UNL1        0.0000
      2 C          -5.4345    0.3137   -0.1623 C.2     1  UNL1        0.0000
      3 C          -4.2736   -0.3686   -0.1271 C.ar    1  UNL1        0.0000
      4 C          -4.2086   -1.8084   -0.1940 C.ar    1  UNL1        0.0000
      5 C          -3.0194   -2.4263   -0.1715 C.ar    1  UNL1        0.0000
      6 C          -1.7771   -1.6530   -0.0702 C.ar    1  UNL1        0.0000
      7 C          -0.5269   -2.2561    0.0304 C.ar    1  UNL1        0.0000
      8 C          -0.2597   -3.6023    0.1252 C.ar    1  UNL1        0.0000
      9 N           1.0896   -3.7342    0.3446 N.ar    1  UNL1        0.0000
     10 C           1.6739   -2.4897    0.4000 C.ar    1  UNL1        0.0000
     11 C           0.7109   -1.5507    0.1068 C.ar    1  UNL1        0.0000
     12 C           0.8582   -0.1323    0.0791 C.ar    1  UNL1        0.0000
     13 C          -0.4289    0.5091    0.1460 C.ar    1  UNL1        0.0000
     14 N          -0.4454    1.8370    0.3664 N.ar    1  UNL1        0.0000
     15 C           0.6976    2.5469    0.5296 C.ar    1  UNL1        0.0000
     16 C           1.9825    2.0601    0.3850 C.ar    1  UNL1        0.0000
     17 C           3.1005    2.9575    0.5469 C.ar    1  UNL1        0.0000
     18 C           4.4455    2.6106    0.3338 C.ar    1  UNL1        0.0000
     19 C           4.5487    1.3094   -0.1353 C.ar    1  UNL1        0.0000
     20 C           5.7563    0.7925   -0.5370 C.ar    1  UNL1        0.0000
     21 S           5.5615   -0.7654   -1.2236 S.2     1  UNL1        0.0000
     22 C           3.8595   -0.7263   -0.9868 C.ar    1  UNL1        0.0000
     23 C           3.4452    0.3860   -0.2894 C.ar    1  UNL1        0.0000
     24 C           2.0777    0.6784    0.0547 C.ar    1  UNL1        0.0000
     25 C          -1.6875   -0.2178    0.0139 C.ar    1  UNL1        0.0000
     26 C          -3.0404    0.4609   -0.0299 C.ar    1  UNL1        0.0000
     27 C          -3.3099    1.7851   -0.0145 C.2     1  UNL1        0.0000
     28 H          -5.6564    2.7548    1.1629 H       1  UNL1        0.0000
     29 H          -5.5387    2.8370   -1.3378 H       1  UNL1        0.0000
     30 H          -6.4304   -0.0927   -0.2354 H       1  UNL1        0.0000
     31 H          -5.1286   -2.3780   -0.2690 H       1  UNL1        0.0000
     32 H          -2.9715   -3.5064   -0.2290 H       1  UNL1        0.0000
     33 H          -0.8931   -4.4784    0.1089 H       1  UNL1        0.0000
     34 H           1.5701   -4.6099    0.5092 H       1  UNL1        0.0000
     35 H           2.7159   -2.4106    0.6745 H       1  UNL1        0.0000
     36 H           0.5192    3.5947    0.7634 H       1  UNL1        0.0000
     37 H           2.8993    3.9899    0.8414 H       1  UNL1        0.0000
     38 H           5.2617    3.3107    0.4496 H       1  UNL1        0.0000
     39 H           6.7354    1.2510   -0.5082 H       1  UNL1        0.0000
     40 H           3.2725   -1.5330   -1.3984 H       1  UNL1        0.0000
     41 H          -2.6160    2.6061    0.0338 H       1  UNL1        0.0000
@<TRIPOS>BOND
     1     1     2    1
     2     2     3    2
     3     3     4   ar
     4     4     5   ar
     5     5     6   ar
     6     6     7   ar
     7     7     8   ar
     8     8     9   ar
     9     9    10   ar
    10    10    11   ar
    11    11    12   ar
    12    12    13   ar
    13    13    14   ar
    14    14    15   ar
    15    15    16   ar
    16    16    17   ar
    17    17    18   ar
    18    18    19   ar
    19    19    20   ar
    20    20    21   ar
    21    21    22   ar
    22    22    23   ar
    23    23    24   ar
    24    13    25   ar
    25    25    26   ar
    26    26    27    2
    27    27     1    1
    28    26     3   ar
    29    25     6   ar
    30    11     7   ar
    31    24    12   ar
    32    24    16   ar
    33    23    19   ar
    34     1    28    1
    35     1    29    1
    36     2    30    1
    37     4    31    1
    38     5    32    1
    39     8    33    1
    40     9    34    1
    41    10    35    1
    42    15    36    1
    43    17    37    1
    44    18    38    1
    45    20    39    1
    46    22    40    1
    47    27    41    1
