@<TRIPOS>MOLECULE
*****
 37 42 0 0 0
SMALL
GASTEIGER

@<TRIPOS>ATOM
      1 SI         -4.2921    1.1068    1.8541 Si      1  UNL1        0.0000
      2 C          -4.8303    0.1898    0.3221 C.2     1  UNL1        0.0000
      3 C          -3.7659   -0.2942   -0.3457 C.ar    1  UNL1        0.0000
      4 C          -3.8706   -1.2099   -1.4556 C.ar    1  UNL1        0.0000
      5 C          -2.7654   -1.8202   -1.9111 C.ar    1  UNL1        0.0000
      6 C          -1.4202   -1.5051   -1.3733 C.ar    1  UNL1        0.0000
      7 C          -0.3396   -2.2599   -1.8203 C.ar    1  UNL1        0.0000
      8 C           0.9551   -1.9666   -1.3884 C.ar    1  UNL1        0.0000
      9 C           1.2645   -0.8445   -0.5987 C.ar    1  UNL1        0.0000
     10 C           2.6516   -0.6156   -0.2604 C.ar    1  UNL1        0.0000
     11 N           3.5895   -1.5299   -0.6063 N.ar    1  UNL1        0.0000
     12 C           4.8903   -1.3381   -0.2817 C.ar    1  UNL1        0.0000
     13 C           5.3646   -0.2365    0.3957 C.ar    1  UNL1        0.0000
     14 C           4.4472    0.7334    0.7570 C.ar    1  UNL1        0.0000
     15 C           3.0809    0.5520    0.4308 C.ar    1  UNL1        0.0000
     16 C           2.0297    1.4674    0.6768 C.ar    1  UNL1        0.0000
     17 C           2.2242    2.7166    1.2237 C.ar    1  UNL1        0.0000
     18 S           0.7810    3.6381    1.2298 S.2     1  UNL1        0.0000
     19 C          -0.0989    2.3642    0.4952 C.ar    1  UNL1        0.0000
     20 C           0.6458    1.2128    0.3574 C.ar    1  UNL1        0.0000
     21 C           0.1506   -0.0056   -0.2114 C.ar    1  UNL1        0.0000
     22 C          -1.2026   -0.4387   -0.4627 C.ar    1  UNL1        0.0000
     23 C          -2.4390    0.0671    0.2093 C.ar    1  UNL1        0.0000
     24 C          -2.5233    0.6896    1.4051 C.2     1  UNL1        0.0000
     25 H          -4.5634    2.5622    1.7696 H       1  UNL1        0.0000
     26 H          -4.7343    0.4402    3.1025 H       1  UNL1        0.0000
     27 H          -5.8723    0.0113    0.1095 H       1  UNL1        0.0000
     28 H          -4.8469   -1.4429   -1.8662 H       1  UNL1        0.0000
     29 H          -2.8358   -2.5436   -2.7169 H       1  UNL1        0.0000
     30 H          -0.4877   -3.1030   -2.4911 H       1  UNL1        0.0000
     31 H           1.7553   -2.6232   -1.7338 H       1  UNL1        0.0000
     32 H           5.5620   -2.1315   -0.5980 H       1  UNL1        0.0000
     33 H           6.4179   -0.1343    0.6281 H       1  UNL1        0.0000
     34 H           4.7913    1.6187    1.2812 H       1  UNL1        0.0000
     35 H           3.1336    3.1753    1.5839 H       1  UNL1        0.0000
     36 H          -1.1224    2.5539    0.2079 H       1  UNL1        0.0000
     37 H          -1.7245    0.9438    2.0819 H       1  UNL1        0.0000
@<TRIPOS>BOND
     1     1     2    1
     2     2     3    2
     3     3     4   ar
     4     4     5   ar
     5     5     6   ar
     6     6     7   ar
     7     7     8   ar
     8     8     9   ar
     9     9    10   ar
    10    10    11   ar
    11    11    12   ar
    12    12    13   ar
    13    13    14   ar
    14    14    15   ar
    15    15    16   ar
    16    16    17   ar
    17    17    18   ar
    18    18    19   ar
    19    19    20   ar
    20    20    21   ar
    21    21    22   ar
    22    22    23   ar
    23    23    24    2
    24    24     1    1
    25    23     3   ar
    26    22     6   ar
    27    21     9   ar
    28    15    10   ar
    29    20    16   ar
    30     1    25    1
    31     1    26    1
    32     2    27    1
    33     4    28    1
    34     5    29    1
    35     7    30    1
    36     8    31    1
    37    12    32    1
    38    13    33    1
    39    14    34    1
    40    17    35    1
    41    19    36    1
    42    24    37    1
