@<TRIPOS>MOLECULE
*****
 37 41 0 0 0
SMALL
GASTEIGER

@<TRIPOS>ATOM
      1 SI         -4.1877   -0.1236    2.5928 Si      1  UNL1        0.0000
      2 C          -5.0833    0.4603    1.0561 C.2     1  UNL1        0.0000
      3 C          -4.2292    0.5700    0.0220 C.ar    1  UNL1        0.0000
      4 C          -4.5883    0.9901   -1.3169 C.ar    1  UNL1        0.0000
      5 C          -3.6267    1.0476   -2.2570 C.ar    1  UNL1        0.0000
      6 C          -2.2355    0.7033   -1.9679 C.ar    1  UNL1        0.0000
      7 C          -1.8156    0.3112   -0.7415 C.ar    1  UNL1        0.0000
      8 C          -0.3998   -0.0063   -0.5791 C.ar    1  UNL1        0.0000
      9 C           0.2298   -1.1947   -1.0254 C.ar    1  UNL1        0.0000
     10 C           1.6275   -1.4839   -0.8359 C.ar    1  UNL1        0.0000
     11 C           2.5376   -0.6099   -0.1892 C.ar    1  UNL1        0.0000
     12 C           3.9410   -0.9059    0.0177 C.ar    1  UNL1        0.0000
     13 C           4.5028   -1.9235    0.7639 C.ar    1  UNL1        0.0000
     14 C           5.9274   -1.9136    0.7133 C.ar    1  UNL1        0.0000
     15 C           6.4061   -0.8976   -0.0827 C.ar    1  UNL1        0.0000
     16 S           5.1433    0.0315   -0.7656 S.2     1  UNL1        0.0000
     17 C           1.8980    0.5517    0.2540 C.ar    1  UNL1        0.0000
     18 C           2.4191    1.6134    0.9485 C.ar    1  UNL1        0.0000
     19 O           1.4387    2.5375    1.1873 O.2     1  UNL1        0.0000
     20 C           0.2781    2.0580    0.6455 C.ar    1  UNL1        0.0000
     21 C           0.5079    0.8353    0.0692 C.ar    1  UNL1        0.0000
     22 C          -2.8196    0.2187    0.3234 C.ar    1  UNL1        0.0000
     23 C          -2.6044   -0.1672    1.5976 C.2     1  UNL1        0.0000
     24 H          -4.6262   -1.4739    3.0214 H       1  UNL1        0.0000
     25 H          -4.1626    0.9093    3.6563 H       1  UNL1        0.0000
     26 H          -6.1422    0.6621    1.0590 H       1  UNL1        0.0000
     27 H          -5.6166    1.2487   -1.5414 H       1  UNL1        0.0000
     28 H          -3.8632    1.3587   -3.2699 H       1  UNL1        0.0000
     29 H          -1.5407    0.7898   -2.8000 H       1  UNL1        0.0000
     30 H          -0.3771   -1.9424   -1.5383 H       1  UNL1        0.0000
     31 H           2.0017   -2.4328   -1.2231 H       1  UNL1        0.0000
     32 H           3.9180   -2.6396    1.3291 H       1  UNL1        0.0000
     33 H           6.5670   -2.6172    1.2319 H       1  UNL1        0.0000
     34 H           7.4372   -0.6567   -0.3024 H       1  UNL1        0.0000
     35 H           3.3971    1.8682    1.3319 H       1  UNL1        0.0000
     36 H          -0.5890    2.6928    0.7638 H       1  UNL1        0.0000
     37 H          -1.6708   -0.4695    2.0445 H       1  UNL1        0.0000
@<TRIPOS>BOND
     1     1     2    1
     2     2     3    2
     3     3     4   ar
     4     4     5   ar
     5     5     6   ar
     6     6     7   ar
     7     7     8    1
     8     8     9   ar
     9     9    10   ar
    10    10    11   ar
    11    11    12    1
    12    12    13   ar
    13    13    14   ar
    14    14    15   ar
    15    15    16   ar
    16    11    17   ar
    17    17    18   ar
    18    18    19   ar
    19    19    20   ar
    20    20    21   ar
    21     7    22   ar
    22    22    23    2
    23    23     1    1
    24    22     3   ar
    25    21     8   ar
    26    16    12   ar
    27    21    17   ar
    28     1    24    1
    29     1    25    1
    30     2    26    1
    31     4    27    1
    32     5    28    1
    33     6    29    1
    34     9    30    1
    35    10    31    1
    36    13    32    1
    37    14    33    1
    38    15    34    1
    39    18    35    1
    40    20    36    1
    41    23    37    1
