@<TRIPOS>MOLECULE
*****
 49 54 0 0 0
SMALL
GASTEIGER

@<TRIPOS>ATOM
      1 SI         -6.5432    2.2510   -1.2531 Si      1  UNL1        0.0000
      2 C          -7.4751    0.7305   -0.6851 C.2     1  UNL1        0.0000
      3 C          -6.6195   -0.2403   -0.3052 C.ar    1  UNL1        0.0000
      4 C          -7.0041   -1.5518    0.1697 C.ar    1  UNL1        0.0000
      5 C          -6.0380   -2.4307    0.4977 C.ar    1  UNL1        0.0000
      6 C          -4.6181   -2.0985    0.4028 C.ar    1  UNL1        0.0000
      7 C          -4.1744   -0.8851   -0.0217 C.ar    1  UNL1        0.0000
      8 C          -2.7209   -0.6535   -0.0456 C.ar    1  UNL1        0.0000
      9 C          -1.8859   -1.3071   -0.9578 C.ar    1  UNL1        0.0000
     10 C          -0.5161   -1.0516   -0.9411 C.ar    1  UNL1        0.0000
     11 C          -0.0160   -0.1418   -0.0127 C.ar    1  UNL1        0.0000
     12 N          -0.8019    0.5166    0.8709 N.ar    1  UNL1        0.0000
     13 C          -2.1273    0.2405    0.8387 C.ar    1  UNL1        0.0000
     14 C           1.4253    0.1534    0.0421 C.ar    1  UNL1        0.0000
     15 C           1.8607    1.2830   -0.5602 C.ar    1  UNL1        0.0000
     16 C           3.2705    1.6643   -0.6110 C.ar    1  UNL1        0.0000
     17 C           4.2598    0.9236   -0.0600 C.ar    1  UNL1        0.0000
     18 C           5.5898    1.4046   -0.2213 C.ar    1  UNL1        0.0000
     19 C           6.2200    2.6043    0.0620 C.ar    1  UNL1        0.0000
     20 C           7.5719    2.4840   -0.3383 C.ar    1  UNL1        0.0000
     21 C           7.7328    1.2228   -0.8702 C.ar    1  UNL1        0.0000
     22 N           6.5234    0.5784   -0.8066 N.ar    1  UNL1        0.0000
     23 C           3.8608   -0.3093    0.6396 C.ar    1  UNL1        0.0000
     24 C           4.6832   -1.1466    1.3082 C.2     1  UNL1        0.0000
     25 SI          3.7373   -2.5672    2.0639 Si      1  UNL1        0.0000
     26 C           2.1735   -1.8411    1.3612 C.2     1  UNL1        0.0000
     27 C           2.4258   -0.7028    0.6800 C.ar    1  UNL1        0.0000
     28 C          -5.1824    0.1139   -0.4127 C.ar    1  UNL1        0.0000
     29 C          -4.9448    1.3532   -0.8899 C.2     1  UNL1        0.0000
     30 H          -6.7543    3.4124   -0.3544 H       1  UNL1        0.0000
     31 H          -6.7347    2.5136   -2.6984 H       1  UNL1        0.0000
     32 H          -8.5515    0.6877   -0.6915 H       1  UNL1        0.0000
     33 H          -8.0541   -1.8080    0.2520 H       1  UNL1        0.0000
     34 H          -6.2943   -3.4218    0.8616 H       1  UNL1        0.0000
     35 H          -3.9248   -2.8839    0.6936 H       1  UNL1        0.0000
     36 H          -2.2958   -2.0032   -1.6847 H       1  UNL1        0.0000
     37 H           0.1445   -1.5478   -1.6446 H       1  UNL1        0.0000
     38 H          -2.7224    0.7834    1.5734 H       1  UNL1        0.0000
     39 H           1.1634    1.9628   -1.0475 H       1  UNL1        0.0000
     40 H           3.4899    2.5885   -1.1467 H       1  UNL1        0.0000
     41 H           5.7587    3.4625    0.5264 H       1  UNL1        0.0000
     42 H           8.3435    3.2365   -0.2437 H       1  UNL1        0.0000
     43 H           8.5995    0.7263   -1.2881 H       1  UNL1        0.0000
     44 H           6.3382   -0.3609   -1.1367 H       1  UNL1        0.0000
     45 H           5.7489   -1.0512    1.4464 H       1  UNL1        0.0000
     46 H           4.0839   -3.8603    1.4293 H       1  UNL1        0.0000
     47 H           3.7712   -2.5590    3.5469 H       1  UNL1        0.0000
     48 H           1.2129   -2.2979    1.5414 H       1  UNL1        0.0000
     49 H          -3.9900    1.8238   -1.0661 H       1  UNL1        0.0000
@<TRIPOS>BOND
     1     1     2    1
     2     2     3    2
     3     3     4   ar
     4     4     5   ar
     5     5     6   ar
     6     6     7   ar
     7     7     8    1
     8     8     9   ar
     9     9    10   ar
    10    10    11   ar
    11    11    12   ar
    12    12    13   ar
    13    11    14    1
    14    14    15   ar
    15    15    16   ar
    16    16    17   ar
    17    17    18    1
    18    18    19   ar
    19    19    20   ar
    20    20    21   ar
    21    21    22   ar
    22    17    23   ar
    23    23    24    2
    24    24    25    1
    25    25    26    1
    26    26    27    2
    27     7    28   ar
    28    28    29    2
    29    29     1    1
    30    28     3   ar
    31    13     8   ar
    32    27    14   ar
    33    22    18   ar
    34    27    23   ar
    35     1    30    1
    36     1    31    1
    37     2    32    1
    38     4    33    1
    39     5    34    1
    40     6    35    1
    41     9    36    1
    42    10    37    1
    43    13    38    1
    44    15    39    1
    45    16    40    1
    46    19    41    1
    47    20    42    1
    48    21    43    1
    49    22    44    1
    50    24    45    1
    51    25    46    1
    52    25    47    1
    53    26    48    1
    54    29    49    1
