@<TRIPOS>MOLECULE
*****
 42 47 0 0 0
SMALL
GASTEIGER

@<TRIPOS>ATOM
      1 SI         -6.5673    2.0118   -0.7181 Si      1  UNL1        0.0000
      2 C          -7.0667    0.2834   -0.2218 C.2     1  UNL1        0.0000
      3 C          -5.9900   -0.4388    0.1397 C.ar    1  UNL1        0.0000
      4 C          -6.0272   -1.8296    0.5386 C.ar    1  UNL1        0.0000
      5 C          -4.8705   -2.4441    0.8418 C.ar    1  UNL1        0.0000
      6 C          -3.5881   -1.7456    0.8008 C.ar    1  UNL1        0.0000
      7 C          -3.4548   -0.4396    0.4569 C.ar    1  UNL1        0.0000
      8 C          -2.1274    0.1042    0.5168 C.ar    1  UNL1        0.0000
      9 C          -1.6928    1.3600    0.9214 C.ar    1  UNL1        0.0000
     10 C          -0.2821    1.3956    0.8071 C.ar    1  UNL1        0.0000
     11 C           0.1143    0.1569    0.3451 C.ar    1  UNL1        0.0000
     12 O          -1.0000   -0.6169    0.1804 O.2     1  UNL1        0.0000
     13 C           1.4264   -0.3376    0.0612 C.ar    1  UNL1        0.0000
     14 C           1.8038   -1.5832   -0.3926 C.ar    1  UNL1        0.0000
     15 C           3.2143   -1.5876   -0.5118 C.ar    1  UNL1        0.0000
     16 C           3.6867   -0.3396   -0.1400 C.ar    1  UNL1        0.0000
     17 N           2.5744    0.4001    0.2138 N.ar    1  UNL1        0.0000
     18 C           5.0437    0.1912   -0.0853 C.ar    1  UNL1        0.0000
     19 C           5.3787    1.5284   -0.3384 C.ar    1  UNL1        0.0000
     20 N           6.6217    2.1125   -0.2998 N.ar    1  UNL1        0.0000
     21 C           7.7264    1.3708    0.0011 C.ar    1  UNL1        0.0000
     22 C           7.5537   -0.0008    0.2724 C.ar    1  UNL1        0.0000
     23 N           8.5220   -0.8771    0.5855 N.ar    1  UNL1        0.0000
     24 S           7.7723   -2.3397    0.8112 S.2     1  UNL1        0.0000
     25 N           6.1943   -1.9262    0.5242 N.ar    1  UNL1        0.0000
     26 C           6.1724   -0.6125    0.2287 C.ar    1  UNL1        0.0000
     27 C          -4.6876    0.2773    0.0823 C.ar    1  UNL1        0.0000
     28 C          -4.7887    1.5494   -0.3582 C.2     1  UNL1        0.0000
     29 H          -7.0770    3.0427    0.2182 H       1  UNL1        0.0000
     30 H          -6.8009    2.2833   -2.1567 H       1  UNL1        0.0000
     31 H          -8.0930   -0.0446   -0.2608 H       1  UNL1        0.0000
     32 H          -6.9743   -2.3555    0.5744 H       1  UNL1        0.0000
     33 H          -4.8598   -3.4887    1.1373 H       1  UNL1        0.0000
     34 H          -2.7231   -2.3389    1.0904 H       1  UNL1        0.0000
     35 H          -2.3306    2.1575    1.2763 H       1  UNL1        0.0000
     36 H           0.3593    2.2307    1.0459 H       1  UNL1        0.0000
     37 H           1.1317   -2.4040   -0.6106 H       1  UNL1        0.0000
     38 H           3.8216   -2.4214   -0.8428 H       1  UNL1        0.0000
     39 H           2.5979    1.3473    0.5619 H       1  UNL1        0.0000
     40 H           4.5986    2.2363   -0.6188 H       1  UNL1        0.0000
     41 H           8.6849    1.8723    0.0166 H       1  UNL1        0.0000
     42 H          -3.9971    2.2605   -0.5232 H       1  UNL1        0.0000
@<TRIPOS>BOND
     1     1     2    1
     2     2     3    2
     3     3     4   ar
     4     4     5   ar
     5     5     6   ar
     6     6     7   ar
     7     7     8    1
     8     8     9   ar
     9     9    10   ar
    10    10    11   ar
    11    11    12   ar
    12    11    13    1
    13    13    14   ar
    14    14    15   ar
    15    15    16   ar
    16    16    17   ar
    17    16    18    1
    18    18    19   ar
    19    19    20   ar
    20    20    21   ar
    21    21    22   ar
    22    22    23   ar
    23    23    24   ar
    24    24    25   ar
    25    25    26   ar
    26     7    27   ar
    27    27    28    2
    28    28     1    1
    29    27     3   ar
    30    12     8   ar
    31    17    13   ar
    32    26    18   ar
    33    26    22   ar
    34     1    29    1
    35     1    30    1
    36     2    31    1
    37     4    32    1
    38     5    33    1
    39     6    34    1
    40     9    35    1
    41    10    36    1
    42    14    37    1
    43    15    38    1
    44    17    39    1
    45    19    40    1
    46    21    41    1
    47    28    42    1
