@<TRIPOS>MOLECULE
*****
 39 43 0 0 0
SMALL
GASTEIGER

@<TRIPOS>ATOM
      1 SI          6.3576   -1.1169    0.9297 Si      1  UNL1        0.0000
      2 C           6.4188    0.7346    0.6971 C.2     1  UNL1        0.0000
      3 C           5.2208    1.2060    0.3050 C.ar    1  UNL1        0.0000
      4 C           4.9197    2.6028    0.0750 C.ar    1  UNL1        0.0000
      5 C           3.6687    2.9422   -0.2825 C.ar    1  UNL1        0.0000
      6 C           2.6170    1.9445   -0.4638 C.ar    1  UNL1        0.0000
      7 C           2.8081    0.6125   -0.2885 C.ar    1  UNL1        0.0000
      8 C           1.6810   -0.2356   -0.5539 C.ar    1  UNL1        0.0000
      9 C           1.6256   -1.4843   -1.1634 C.ar    1  UNL1        0.0000
     10 C           0.2731   -1.9009   -1.1985 C.ar    1  UNL1        0.0000
     11 C          -0.4596   -0.8910   -0.6166 C.ar    1  UNL1        0.0000
     12 O           0.3817    0.1125   -0.2386 O.2     1  UNL1        0.0000
     13 C          -1.8748   -0.6803   -0.3423 C.ar    1  UNL1        0.0000
     14 C          -2.3409    0.4413    0.3480 C.ar    1  UNL1        0.0000
     15 C          -3.7076    0.6036    0.5933 C.ar    1  UNL1        0.0000
     16 C          -4.5983   -0.3652    0.1368 C.ar    1  UNL1        0.0000
     17 N          -4.1718   -1.4659   -0.5330 N.ar    1  UNL1        0.0000
     18 C          -2.8393   -1.5945   -0.7524 C.ar    1  UNL1        0.0000
     19 C          -6.0583   -0.2918    0.3495 C.ar    1  UNL1        0.0000
     20 N          -6.8636   -1.3321    0.4866 N.ar    1  UNL1        0.0000
     21 C          -8.1691   -0.9177    0.6465 C.ar    1  UNL1        0.0000
     22 C          -8.3654    0.4437    0.6322 C.ar    1  UNL1        0.0000
     23 S          -6.8671    1.2387    0.4062 S.2     1  UNL1        0.0000
     24 C           4.1538    0.1843    0.1343 C.ar    1  UNL1        0.0000
     25 C           4.5530   -1.0706    0.4312 C.2     1  UNL1        0.0000
     26 H           7.1930   -1.8415   -0.0581 H       1  UNL1        0.0000
     27 H           6.5433   -1.5195    2.3444 H       1  UNL1        0.0000
     28 H           7.3164    1.3010    0.8866 H       1  UNL1        0.0000
     29 H           5.6945    3.3498    0.2041 H       1  UNL1        0.0000
     30 H           3.4064    3.9812   -0.4568 H       1  UNL1        0.0000
     31 H           1.6516    2.3347   -0.7789 H       1  UNL1        0.0000
     32 H           2.4761   -2.0266   -1.5531 H       1  UNL1        0.0000
     33 H          -0.1096   -2.8259   -1.6058 H       1  UNL1        0.0000
     34 H          -1.6457    1.1965    0.7088 H       1  UNL1        0.0000
     35 H          -4.0463    1.4729    1.1467 H       1  UNL1        0.0000
     36 H          -2.5723   -2.4984   -1.2933 H       1  UNL1        0.0000
     37 H          -8.9473   -1.6610    0.7697 H       1  UNL1        0.0000
     38 H          -9.2905    0.9914    0.7366 H       1  UNL1        0.0000
     39 H           3.9672   -1.9743    0.4216 H       1  UNL1        0.0000
@<TRIPOS>BOND
     1     1     2    1
     2     2     3    2
     3     3     4   ar
     4     4     5   ar
     5     5     6   ar
     6     6     7   ar
     7     7     8    1
     8     8     9   ar
     9     9    10   ar
    10    10    11   ar
    11    11    12   ar
    12    11    13    1
    13    13    14   ar
    14    14    15   ar
    15    15    16   ar
    16    16    17   ar
    17    17    18   ar
    18    16    19    1
    19    19    20   ar
    20    20    21   ar
    21    21    22   ar
    22    22    23   ar
    23     7    24   ar
    24    24    25    2
    25    25     1    1
    26    24     3   ar
    27    12     8   ar
    28    18    13   ar
    29    23    19   ar
    30     1    26    1
    31     1    27    1
    32     2    28    1
    33     4    29    1
    34     5    30    1
    35     6    31    1
    36     9    32    1
    37    10    33    1
    38    14    34    1
    39    15    35    1
    40    18    36    1
    41    21    37    1
    42    22    38    1
    43    25    39    1
