@<TRIPOS>MOLECULE
*****
 38 44 0 0 0
SMALL
GASTEIGER

@<TRIPOS>ATOM
      1 SI          3.0944    1.0651    0.6596 Si      1  UNL1        0.0000
      2 C           3.4912   -0.5365   -0.4080 C.2     1  UNL1        0.0000
      3 C           2.3631   -1.1691   -0.8175 C.2     1  UNL1        0.0000
      4 C           1.2219   -0.4795   -0.3487 C.ar    1  UNL1        0.0000
      5 N          -0.0940   -0.7905   -0.5431 N.ar    1  UNL1        0.0000
      6 C          -0.8901    0.1604    0.0957 C.ar    1  UNL1        0.0000
      7 C           0.0116    1.0511    0.6789 C.ar    1  UNL1        0.0000
      8 C           1.2983    0.6628    0.4092 C.ar    1  UNL1        0.0000
      9 C          -0.4635    2.1685    1.4251 C.ar    1  UNL1        0.0000
     10 N           0.3537    3.0407    1.9967 N.ar    1  UNL1        0.0000
     11 S          -0.7129    4.1112    2.7170 S.2     1  UNL1        0.0000
     12 N          -2.1782    3.4321    2.2794 N.ar    1  UNL1        0.0000
     13 C          -1.9036    2.3293    1.5448 C.ar    1  UNL1        0.0000
     14 C          -2.8543    1.4322    0.9578 C.ar    1  UNL1        0.0000
     15 C          -4.2807    1.6501    1.1153 C.ar    1  UNL1        0.0000
     16 C          -5.2749    0.8128    0.5684 C.ar    1  UNL1        0.0000
     17 C          -4.7027   -0.2381   -0.1342 C.ar    1  UNL1        0.0000
     18 C          -5.4088   -1.2194   -0.7791 C.ar    1  UNL1        0.0000
     19 N          -4.4852   -2.0644   -1.3482 N.ar    1  UNL1        0.0000
     20 C          -3.2021   -1.6295   -1.0712 C.ar    1  UNL1        0.0000
     21 C          -3.3007   -0.4865   -0.3118 C.ar    1  UNL1        0.0000
     22 C          -2.2832    0.3239    0.2169 C.ar    1  UNL1        0.0000
     23 C           4.8450   -0.8790   -0.6485 C.ar    1  UNL1        0.0000
     24 N           5.9006   -0.2112   -0.2149 N.ar    1  UNL1        0.0000
     25 C           7.0756   -0.8080   -0.6228 C.ar    1  UNL1        0.0000
     26 C           6.9284   -1.9461   -1.3776 C.ar    1  UNL1        0.0000
     27 S           5.2671   -2.2847   -1.5866 S.2     1  UNL1        0.0000
     28 H           3.5343    2.2989   -0.0459 H       1  UNL1        0.0000
     29 H           3.5540    0.8968    2.0647 H       1  UNL1        0.0000
     30 H           2.3151   -2.0695   -1.4151 H       1  UNL1        0.0000
     31 H          -0.4386   -1.5809   -1.0650 H       1  UNL1        0.0000
     32 H          -4.6109    2.5157    1.6928 H       1  UNL1        0.0000
     33 H          -6.3339    0.9875    0.6939 H       1  UNL1        0.0000
     34 H          -6.4693   -1.4008   -0.8899 H       1  UNL1        0.0000
     35 H          -4.7128   -2.8869   -1.8920 H       1  UNL1        0.0000
     36 H          -2.3711   -2.1976   -1.4555 H       1  UNL1        0.0000
     37 H           8.0215   -0.3644   -0.3371 H       1  UNL1        0.0000
     38 H           7.6958   -2.5757   -1.8034 H       1  UNL1        0.0000
@<TRIPOS>BOND
     1     1     2    1
     2     2     3    2
     3     3     4    1
     4     4     5   ar
     5     5     6   ar
     6     6     7   ar
     7     7     8   ar
     8     7     9   ar
     9     9    10   ar
    10    10    11   ar
    11    11    12   ar
    12    12    13   ar
    13    13    14   ar
    14    14    15   ar
    15    15    16   ar
    16    16    17   ar
    17    17    18   ar
    18    18    19   ar
    19    19    20   ar
    20    20    21   ar
    21    21    22   ar
    22     2    23    1
    23    23    24   ar
    24    24    25   ar
    25    25    26   ar
    26    26    27   ar
    27     8     1    1
    28    13     9   ar
    29    22    14   ar
    30    27    23   ar
    31     8     4   ar
    32    21    17   ar
    33    22     6   ar
    34     1    28    1
    35     1    29    1
    36     3    30    1
    37     5    31    1
    38    15    32    1
    39    16    33    1
    40    18    34    1
    41    19    35    1
    42    20    36    1
    43    25    37    1
    44    26    38    1
