@<TRIPOS>MOLECULE
*****
 34 39 0 0 0
SMALL
GASTEIGER

@<TRIPOS>ATOM
      1 SI         -0.7325   -1.2691    0.7251 Si      1  UNL1        0.0000
      2 C          -1.8582    0.1029    0.0645 C.2     1  UNL1        0.0000
      3 C          -1.1183    1.1353   -0.3975 C.2     1  UNL1        0.0000
      4 C           0.3371    0.9562   -0.2824 C.ar    1  UNL1        0.0000
      5 N           1.1532    1.9334   -0.7172 N.ar    1  UNL1        0.0000
      6 C           2.4784    1.6988   -0.5793 C.ar    1  UNL1        0.0000
      7 C           3.0041    0.5246   -0.0238 C.ar    1  UNL1        0.0000
      8 C           4.3791    0.2946    0.1130 C.ar    1  UNL1        0.0000
      9 O           5.4087    1.1145   -0.2443 O.2     1  UNL1        0.0000
     10 C           6.5570    0.4603    0.0840 C.ar    1  UNL1        0.0000
     11 C           6.2790   -0.7662    0.6462 C.ar    1  UNL1        0.0000
     12 C           4.8717   -0.8789    0.6675 C.ar    1  UNL1        0.0000
     13 N           4.0780   -1.8823    1.1150 N.ar    1  UNL1        0.0000
     14 C           2.7471   -1.6469    0.9767 C.ar    1  UNL1        0.0000
     15 C           2.1458   -0.4934    0.4291 C.ar    1  UNL1        0.0000
     16 C           0.7704   -0.2528    0.2874 C.ar    1  UNL1        0.0000
     17 C          -3.3089   -0.0639    0.1096 C.ar    1  UNL1        0.0000
     18 N          -3.8250   -1.2247    0.6359 N.ar    1  UNL1        0.0000
     19 C          -5.1740   -1.4513    0.7108 C.ar    1  UNL1        0.0000
     20 C          -6.1925   -0.6048    0.2960 C.ar    1  UNL1        0.0000
     21 C          -5.7242    0.6021   -0.2527 C.ar    1  UNL1        0.0000
     22 N          -6.5067    1.5851   -0.7254 N.ar    1  UNL1        0.0000
     23 S          -5.4900    2.7817   -1.2571 S.2     1  UNL1        0.0000
     24 N          -4.0172    2.1086   -0.9126 N.ar    1  UNL1        0.0000
     25 C          -4.2466    0.9029   -0.3592 C.ar    1  UNL1        0.0000
     26 H          -0.7686   -2.5184   -0.0783 H       1  UNL1        0.0000
     27 H          -0.8189   -1.4647    2.1954 H       1  UNL1        0.0000
     28 H          -1.4893    2.0536   -0.8312 H       1  UNL1        0.0000
     29 H           3.1268    2.4959   -0.9343 H       1  UNL1        0.0000
     30 H           7.4733    0.9891   -0.1409 H       1  UNL1        0.0000
     31 H           6.9965   -1.4920    0.9981 H       1  UNL1        0.0000
     32 H           2.1354   -2.4690    1.3442 H       1  UNL1        0.0000
     33 H          -5.4289   -2.4153    1.1517 H       1  UNL1        0.0000
     34 H          -7.2418   -0.8462    0.3845 H       1  UNL1        0.0000
@<TRIPOS>BOND
     1     1     2    1
     2     2     3    2
     3     3     4    1
     4     4     5   ar
     5     5     6   ar
     6     6     7   ar
     7     7     8   ar
     8     8     9   ar
     9     9    10   ar
    10    10    11   ar
    11    11    12   ar
    12    12    13   ar
    13    13    14   ar
    14    14    15   ar
    15    15    16   ar
    16     2    17    1
    17    17    18   ar
    18    18    19   ar
    19    19    20   ar
    20    20    21   ar
    21    21    22   ar
    22    22    23   ar
    23    23    24   ar
    24    24    25   ar
    25    16     1    1
    26    25    17   ar
    27    16     4   ar
    28    25    21   ar
    29    15     7   ar
    30    12     8   ar
    31     1    26    1
    32     1    27    1
    33     3    28    1
    34     6    29    1
    35    10    30    1
    36    11    31    1
    37    14    32    1
    38    19    33    1
    39    20    34    1
