@<TRIPOS>MOLECULE
*****
 44 50 0 0 0
SMALL
GASTEIGER

@<TRIPOS>ATOM
      1 SI         -7.2009    0.5433   -1.2384 Si      1  UNL1        0.0000
      2 C          -7.2762   -0.0813    0.5185 C.2     1  UNL1        0.0000
      3 C          -6.0472   -0.4008    0.9643 C.ar    1  UNL1        0.0000
      4 C          -5.7532   -0.8758    2.2994 C.ar    1  UNL1        0.0000
      5 C          -4.4734   -1.1253    2.6272 C.ar    1  UNL1        0.0000
      6 C          -3.3812   -0.9522    1.6728 C.ar    1  UNL1        0.0000
      7 C          -3.5596   -0.5298    0.3955 C.ar    1  UNL1        0.0000
      8 C          -2.3830   -0.4617   -0.4246 C.ar    1  UNL1        0.0000
      9 C          -2.2125   -0.7543   -1.7711 C.ar    1  UNL1        0.0000
     10 C          -0.8522   -0.5398   -2.0983 C.ar    1  UNL1        0.0000
     11 C          -0.2158   -0.1259   -0.9446 C.ar    1  UNL1        0.0000
     12 O          -1.1449   -0.0967    0.0613 O.2     1  UNL1        0.0000
     13 C           1.1628    0.2131   -0.7296 C.ar    1  UNL1        0.0000
     14 S           1.8435    0.1972    0.8598 S.2     1  UNL1        0.0000
     15 C           3.4074    0.6465    0.3129 C.ar    1  UNL1        0.0000
     16 C           4.5236    0.8004    1.1845 C.ar    1  UNL1        0.0000
     17 S           4.6699    2.0981    2.3105 S.2     1  UNL1        0.0000
     18 C           6.2006    1.5545    2.8868 C.ar    1  UNL1        0.0000
     19 C           6.5213    0.4268    2.2144 C.ar    1  UNL1        0.0000
     20 C           7.6314   -0.4498    2.2643 C.ar    1  UNL1        0.0000
     21 C           7.5121   -1.5126    1.3612 C.ar    1  UNL1        0.0000
     22 S           6.0519   -1.5447    0.3801 S.2     1  UNL1        0.0000
     23 C           5.6117   -0.0276    1.2591 C.ar    1  UNL1        0.0000
     24 C           3.4083    0.8321   -1.0423 C.ar    1  UNL1        0.0000
     25 S           4.7190    1.3378   -2.1838 S.2     1  UNL1        0.0000
     26 C           3.4858    1.2088   -3.4233 C.ar    1  UNL1        0.0000
     27 C           2.2123    0.8198   -2.9942 C.ar    1  UNL1        0.0000
     28 C           2.1456    0.5830   -1.5916 C.ar    1  UNL1        0.0000
     29 C          -4.9403   -0.2087   -0.0106 C.ar    1  UNL1        0.0000
     30 C          -5.3456    0.2916   -1.1971 C.2     1  UNL1        0.0000
     31 H          -7.5748    1.9734   -1.3530 H       1  UNL1        0.0000
     32 H          -7.8678   -0.3708   -2.1968 H       1  UNL1        0.0000
     33 H          -8.2055   -0.1360    1.0626 H       1  UNL1        0.0000
     34 H          -6.5573   -1.0097    3.0139 H       1  UNL1        0.0000
     35 H          -4.2151   -1.4748    3.6222 H       1  UNL1        0.0000
     36 H          -2.3911   -1.2083    2.0448 H       1  UNL1        0.0000
     37 H          -2.9870   -1.1066   -2.4379 H       1  UNL1        0.0000
     38 H          -0.3941   -0.6965   -3.0634 H       1  UNL1        0.0000
     39 H           6.7372    2.0868    3.6594 H       1  UNL1        0.0000
     40 H           8.4877   -0.3360    2.9177 H       1  UNL1        0.0000
     41 H           8.2225   -2.3136    1.2075 H       1  UNL1        0.0000
     42 H           3.7819    1.4430   -4.4370 H       1  UNL1        0.0000
     43 H           1.3843    0.7300   -3.6851 H       1  UNL1        0.0000
     44 H          -4.7420    0.5531   -2.0497 H       1  UNL1        0.0000
@<TRIPOS>BOND
     1     1     2    1
     2     2     3    2
     3     3     4   ar
     4     4     5   ar
     5     5     6   ar
     6     6     7   ar
     7     7     8    1
     8     8     9   ar
     9     9    10   ar
    10    10    11   ar
    11    11    12   ar
    12    11    13    1
    13    13    14   ar
    14    14    15   ar
    15    15    16    1
    16    16    17   ar
    17    17    18   ar
    18    18    19   ar
    19    19    20   ar
    20    20    21   ar
    21    21    22   ar
    22    22    23   ar
    23    15    24   ar
    24    24    25   ar
    25    25    26   ar
    26    26    27   ar
    27    27    28   ar
    28     7    29   ar
    29    29    30    2
    30    30     1    1
    31    29     3   ar
    32    12     8   ar
    33    28    13   ar
    34    23    16   ar
    35    28    24   ar
    36    23    19   ar
    37     1    31    1
    38     1    32    1
    39     2    33    1
    40     4    34    1
    41     5    35    1
    42     6    36    1
    43     9    37    1
    44    10    38    1
    45    18    39    1
    46    20    40    1
    47    21    41    1
    48    26    42    1
    49    27    43    1
    50    30    44    1
