@<TRIPOS>MOLECULE
*****
 43 48 0 0 0
SMALL
GASTEIGER

@<TRIPOS>ATOM
      1 SI          6.3079    0.4661    2.5440 Si      1  UNL1        0.0000
      2 C           7.0904    1.0355    0.9422 C.2     1  UNL1        0.0000
      3 C           6.2355    0.8800   -0.0854 C.ar    1  UNL1        0.0000
      4 C           6.5149    1.2303   -1.4624 C.ar    1  UNL1        0.0000
      5 C           5.5600    1.0253   -2.3880 C.ar    1  UNL1        0.0000
      6 C           4.2571    0.4558   -2.0476 C.ar    1  UNL1        0.0000
      7 C           3.9087    0.1053   -0.7847 C.ar    1  UNL1        0.0000
      8 C           2.6130   -0.4691   -0.5862 C.ar    1  UNL1        0.0000
      9 C           2.2871   -1.7796   -0.2905 C.ar    1  UNL1        0.0000
     10 C           0.8838   -1.9808   -0.1450 C.ar    1  UNL1        0.0000
     11 C           0.1572   -0.8194   -0.3294 C.ar    1  UNL1        0.0000
     12 S           1.1979    0.5035   -0.6632 S.2     1  UNL1        0.0000
     13 C          -1.2938   -0.6229   -0.2419 C.ar    1  UNL1        0.0000
     14 C          -2.0024    0.1839   -1.1320 C.ar    1  UNL1        0.0000
     15 C          -3.3884    0.3253   -1.0059 C.ar    1  UNL1        0.0000
     16 C          -4.0619   -0.3416    0.0153 C.ar    1  UNL1        0.0000
     17 N          -3.3922   -1.1481    0.8782 N.ar    1  UNL1        0.0000
     18 C          -2.0462   -1.2621    0.7367 C.ar    1  UNL1        0.0000
     19 C          -5.5063   -0.2777    0.2347 C.ar    1  UNL1        0.0000
     20 C          -6.2393   -1.3154    0.8398 C.ar    1  UNL1        0.0000
     21 N          -7.5902   -1.3813    1.0997 N.ar    1  UNL1        0.0000
     22 C          -8.4049   -0.3409    0.7764 C.ar    1  UNL1        0.0000
     23 C          -7.8236    0.7909    0.1754 C.ar    1  UNL1        0.0000
     24 N          -8.4691    1.9063   -0.2020 N.ar    1  UNL1        0.0000
     25 S          -7.3214    2.9230   -0.8292 S.2     1  UNL1        0.0000
     26 N          -5.9625    1.9897   -0.6669 N.ar    1  UNL1        0.0000
     27 C          -6.3365    0.8250   -0.1023 C.ar    1  UNL1        0.0000
     28 C           4.9130    0.3083    0.2695 C.ar    1  UNL1        0.0000
     29 C           4.7634    0.0335    1.5820 C.2     1  UNL1        0.0000
     30 H           6.9785   -0.7325    3.1033 H       1  UNL1        0.0000
     31 H           6.0922    1.5822    3.4959 H       1  UNL1        0.0000
     32 H           8.0925    1.4317    0.9100 H       1  UNL1        0.0000
     33 H           7.4779    1.6527   -1.7252 H       1  UNL1        0.0000
     34 H           5.7366    1.2797   -3.4286 H       1  UNL1        0.0000
     35 H           3.5702    0.3179   -2.8792 H       1  UNL1        0.0000
     36 H           3.0300   -2.5619   -0.1862 H       1  UNL1        0.0000
     37 H           0.4347   -2.9415    0.0775 H       1  UNL1        0.0000
     38 H          -1.4951    0.7043   -1.9409 H       1  UNL1        0.0000
     39 H          -3.9151    0.9474   -1.7224 H       1  UNL1        0.0000
     40 H          -1.5773   -1.9070    1.4759 H       1  UNL1        0.0000
     41 H          -5.7108   -2.2163    1.1606 H       1  UNL1        0.0000
     42 H          -9.4589   -0.4323    1.0014 H       1  UNL1        0.0000
     43 H           3.8935   -0.3732    2.0725 H       1  UNL1        0.0000
@<TRIPOS>BOND
     1     1     2    1
     2     2     3    2
     3     3     4   ar
     4     4     5   ar
     5     5     6   ar
     6     6     7   ar
     7     7     8    1
     8     8     9   ar
     9     9    10   ar
    10    10    11   ar
    11    11    12   ar
    12    11    13    1
    13    13    14   ar
    14    14    15   ar
    15    15    16   ar
    16    16    17   ar
    17    17    18   ar
    18    16    19    1
    19    19    20   ar
    20    20    21   ar
    21    21    22   ar
    22    22    23   ar
    23    23    24   ar
    24    24    25   ar
    25    25    26   ar
    26    26    27   ar
    27     7    28   ar
    28    28    29    2
    29    29     1    1
    30    28     3   ar
    31    12     8   ar
    32    18    13   ar
    33    27    19   ar
    34    27    23   ar
    35     1    30    1
    36     1    31    1
    37     2    32    1
    38     4    33    1
    39     5    34    1
    40     6    35    1
    41     9    36    1
    42    10    37    1
    43    14    38    1
    44    15    39    1
    45    18    40    1
    46    20    41    1
    47    22    42    1
    48    29    43    1
