@<TRIPOS>MOLECULE
*****
 49 55 0 0 0
SMALL
GASTEIGER

@<TRIPOS>ATOM
      1 SI         -6.0104   -1.5471   -2.3303 Si      1  UNL1        0.0000
      2 C          -6.8067   -1.5846   -0.6371 C.2     1  UNL1        0.0000
      3 C          -5.9475   -1.1463    0.3014 C.ar    1  UNL1        0.0000
      4 C          -6.2359   -1.0512    1.7172 C.ar    1  UNL1        0.0000
      5 C          -5.2764   -0.5950    2.5431 C.ar    1  UNL1        0.0000
      6 C          -3.9591   -0.1896    2.0553 C.ar    1  UNL1        0.0000
      7 C          -3.6020   -0.2522    0.7487 C.ar    1  UNL1        0.0000
      8 C          -2.2903    0.1966    0.3957 C.ar    1  UNL1        0.0000
      9 S          -0.9002   -0.7780    0.7693 S.2     1  UNL1        0.0000
     10 C           0.2193    0.3293    0.0527 C.ar    1  UNL1        0.0000
     11 C          -0.4743    1.3954   -0.4406 C.ar    1  UNL1        0.0000
     12 SI         -0.0621    2.9862   -1.3673 Si      1  UNL1        0.0000
     13 C          -1.9293    3.3937   -1.3969 C.2     1  UNL1        0.0000
     14 C          -2.6515    2.4297   -0.7863 C.2     1  UNL1        0.0000
     15 C          -1.8852    1.3345   -0.2644 C.ar    1  UNL1        0.0000
     16 C           1.6276    0.0689    0.0434 C.ar    1  UNL1        0.0000
     17 S           2.8189    1.1978    0.5888 S.2     1  UNL1        0.0000
     18 C           4.1803    0.1395    0.2487 C.ar    1  UNL1        0.0000
     19 C           5.5096    0.5371    0.5242 C.2     1  UNL1        0.0000
     20 SI          6.8113   -0.6249    1.2362 Si      1  UNL1        0.0000
     21 C           8.0138    0.8244    1.1924 C.2     1  UNL1        0.0000
     22 C           7.4198    1.9309    0.7102 C.2     1  UNL1        0.0000
     23 C           6.0205    1.7725    0.3388 C.2     1  UNL1        0.0000
     24 C           3.6451   -0.9997   -0.2602 C.ar    1  UNL1        0.0000
     25 C           4.0302   -2.2657   -0.7819 C.ar    1  UNL1        0.0000
     26 C           2.8507   -2.9484   -1.1451 C.ar    1  UNL1        0.0000
     27 N           1.7185   -2.1819   -0.8897 N.ar    1  UNL1        0.0000
     28 C           2.2715   -1.0444   -0.3697 C.ar    1  UNL1        0.0000
     29 C          -4.6106   -0.7441   -0.2006 C.ar    1  UNL1        0.0000
     30 C          -4.4546   -0.8842   -1.5335 C.2     1  UNL1        0.0000
     31 H          -6.6501   -0.5588   -3.2321 H       1  UNL1        0.0000
     32 H          -5.8235   -2.9046   -2.8971 H       1  UNL1        0.0000
     33 H          -7.8195   -1.9251   -0.4938 H       1  UNL1        0.0000
     34 H          -7.2096   -1.3486    2.0892 H       1  UNL1        0.0000
     35 H          -5.4593   -0.5131    3.6102 H       1  UNL1        0.0000
     36 H          -3.2678    0.1794    2.8094 H       1  UNL1        0.0000
     37 H           0.6737    3.9961   -0.5667 H       1  UNL1        0.0000
     38 H           0.4414    2.7708   -2.7469 H       1  UNL1        0.0000
     39 H          -2.2930    4.2985   -1.8562 H       1  UNL1        0.0000
     40 H          -3.7313    2.4688   -0.6915 H       1  UNL1        0.0000
     41 H           7.2244   -1.6997    0.2972 H       1  UNL1        0.0000
     42 H           6.5297   -1.0540    2.6294 H       1  UNL1        0.0000
     43 H           9.0349    0.7234    1.5241 H       1  UNL1        0.0000
     44 H           7.9207    2.8845    0.5960 H       1  UNL1        0.0000
     45 H           5.4692    2.6151   -0.0610 H       1  UNL1        0.0000
     46 H           5.0315   -2.6578   -0.9011 H       1  UNL1        0.0000
     47 H           2.7299   -3.9342   -1.5759 H       1  UNL1        0.0000
     48 H           0.7338   -2.3788   -1.0303 H       1  UNL1        0.0000
     49 H          -3.5761   -0.6609   -2.1177 H       1  UNL1        0.0000
@<TRIPOS>BOND
     1     1     2    1
     2     2     3    2
     3     3     4   ar
     4     4     5   ar
     5     5     6   ar
     6     6     7   ar
     7     7     8    1
     8     8     9   ar
     9     9    10   ar
    10    10    11   ar
    11    11    12    1
    12    12    13    1
    13    13    14    2
    14    14    15    1
    15    10    16    1
    16    16    17   ar
    17    17    18   ar
    18    18    19    1
    19    19    20    1
    20    20    21    1
    21    21    22    2
    22    22    23    1
    23    18    24   ar
    24    24    25   ar
    25    25    26   ar
    26    26    27   ar
    27    27    28   ar
    28     7    29   ar
    29    29    30    2
    30    30     1    1
    31    29     3   ar
    32    15     8   ar
    33    28    16   ar
    34    15    11   ar
    35    23    19    2
    36    28    24   ar
    37     1    31    1
    38     1    32    1
    39     2    33    1
    40     4    34    1
    41     5    35    1
    42     6    36    1
    43    12    37    1
    44    12    38    1
    45    13    39    1
    46    14    40    1
    47    20    41    1
    48    20    42    1
    49    21    43    1
    50    22    44    1
    51    23    45    1
    52    25    46    1
    53    26    47    1
    54    27    48    1
    55    30    49    1
