@<TRIPOS>MOLECULE
*****
 42 47 0 0 0
SMALL
GASTEIGER

@<TRIPOS>ATOM
      1 SI         -5.3526   -0.1795    2.6647 Si      1  UNL1        0.0000
      2 C          -6.3136   -0.7834    1.1764 C.2     1  UNL1        0.0000
      3 C          -5.5216   -0.8396    0.0900 C.ar    1  UNL1        0.0000
      4 C          -5.9407   -1.2763   -1.2252 C.ar    1  UNL1        0.0000
      5 C          -5.0356   -1.2891   -2.2206 C.ar    1  UNL1        0.0000
      6 C          -3.6500   -0.8689   -2.0170 C.ar    1  UNL1        0.0000
      7 C          -3.1712   -0.4505   -0.8193 C.ar    1  UNL1        0.0000
      8 C          -1.8063   -0.0354   -0.7559 C.ar    1  UNL1        0.0000
      9 S          -0.5045   -1.1717   -0.8697 S.2     1  UNL1        0.0000
     10 C           0.7166    0.0317   -0.6733 C.ar    1  UNL1        0.0000
     11 C           2.1152   -0.2892   -0.6684 C.ar    1  UNL1        0.0000
     12 C           2.7963   -1.0475   -1.5993 C.ar    1  UNL1        0.0000
     13 C           4.1803   -1.1871   -1.2822 C.ar    1  UNL1        0.0000
     14 C           4.5252   -0.5425   -0.1105 C.ar    1  UNL1        0.0000
     15 S           3.1568    0.2141    0.5934 S.2     1  UNL1        0.0000
     16 C           5.8291   -0.4795    0.4936 C.ar    1  UNL1        0.0000
     17 C           7.0227   -1.0560    0.0970 C.ar    1  UNL1        0.0000
     18 C           8.0207   -0.6884    1.0336 C.ar    1  UNL1        0.0000
     19 C           7.4175    0.1044    1.9819 C.ar    1  UNL1        0.0000
     20 N           6.0951    0.2259    1.6463 N.ar    1  UNL1        0.0000
     21 C           0.1462    1.2710   -0.5431 C.ar    1  UNL1        0.0000
     22 S           0.8497    2.9299   -0.3480 S.2     1  UNL1        0.0000
     23 C          -0.8178    3.4789   -0.3112 C.ar    1  UNL1        0.0000
     24 C          -1.7977    2.4911   -0.4456 C.ar    1  UNL1        0.0000
     25 C          -1.2470    1.1903   -0.5861 C.ar    1  UNL1        0.0000
     26 C          -4.1152   -0.4203    0.3072 C.ar    1  UNL1        0.0000
     27 C          -3.8383   -0.0494    1.5746 C.2     1  UNL1        0.0000
     28 H          -5.8223    1.1454    3.1375 H       1  UNL1        0.0000
     29 H          -5.2148   -1.2224    3.7093 H       1  UNL1        0.0000
     30 H          -7.3578   -1.0435    1.2434 H       1  UNL1        0.0000
     31 H          -6.9658   -1.5892   -1.3870 H       1  UNL1        0.0000
     32 H          -5.3168   -1.6143   -3.2175 H       1  UNL1        0.0000
     33 H          -3.0140   -0.9012   -2.8984 H       1  UNL1        0.0000
     34 H           2.3308   -1.4797   -2.4771 H       1  UNL1        0.0000
     35 H           4.8847   -1.7377   -1.8931 H       1  UNL1        0.0000
     36 H           7.1679   -1.6789   -0.7754 H       1  UNL1        0.0000
     37 H           9.0649   -0.9723    1.0158 H       1  UNL1        0.0000
     38 H           7.8125    0.5931    2.8626 H       1  UNL1        0.0000
     39 H           5.4039    0.7541    2.1619 H       1  UNL1        0.0000
     40 H          -0.9834    4.5412   -0.1928 H       1  UNL1        0.0000
     41 H          -2.8574    2.7179   -0.4443 H       1  UNL1        0.0000
     42 H          -2.8916    0.2812    1.9715 H       1  UNL1        0.0000
@<TRIPOS>BOND
     1     1     2    1
     2     2     3    2
     3     3     4   ar
     4     4     5   ar
     5     5     6   ar
     6     6     7   ar
     7     7     8    1
     8     8     9   ar
     9     9    10   ar
    10    10    11    1
    11    11    12   ar
    12    12    13   ar
    13    13    14   ar
    14    14    15   ar
    15    14    16    1
    16    16    17   ar
    17    17    18   ar
    18    18    19   ar
    19    19    20   ar
    20    10    21   ar
    21    21    22   ar
    22    22    23   ar
    23    23    24   ar
    24    24    25   ar
    25     7    26   ar
    26    26    27    2
    27    27     1    1
    28    26     3   ar
    29    25     8   ar
    30    15    11   ar
    31    20    16   ar
    32    25    21   ar
    33     1    28    1
    34     1    29    1
    35     2    30    1
    36     4    31    1
    37     5    32    1
    38     6    33    1
    39    12    34    1
    40    13    35    1
    41    17    36    1
    42    18    37    1
    43    19    38    1
    44    20    39    1
    45    23    40    1
    46    24    41    1
    47    27    42    1
