@<TRIPOS>MOLECULE
*****
 34 39 0 0 0
SMALL
GASTEIGER

@<TRIPOS>ATOM
      1 SI          4.0551    1.3600    0.5098 Si      1  UNL1        0.0000
      2 C           5.0802   -0.2253    0.2968 C.2     1  UNL1        0.0000
      3 C           4.2881   -1.2893    0.0555 C.2     1  UNL1        0.0000
      4 C           2.8822   -0.9582    0.0209 C.2     1  UNL1        0.0000
      5 SI          1.4407   -2.0584   -0.2697 Si      1  UNL1        0.0000
      6 C           0.2588   -0.5371   -0.0781 C.ar    1  UNL1        0.0000
      7 C           1.1265    0.5957    0.1800 C.ar    1  UNL1        0.0000
      8 C           2.5557    0.3386    0.2291 C.2     1  UNL1        0.0000
      9 C           0.4043    1.7694    0.3399 C.ar    1  UNL1        0.0000
     10 C           0.8575    3.0383    0.5945 C.ar    1  UNL1        0.0000
     11 O          -0.1963    3.9027    0.6777 O.2     1  UNL1        0.0000
     12 C          -1.3347    3.1797    0.4743 C.ar    1  UNL1        0.0000
     13 C          -1.0241    1.8585    0.2610 C.ar    1  UNL1        0.0000
     14 C          -1.9217    0.7881    0.0122 C.ar    1  UNL1        0.0000
     15 C          -3.3553    0.9865   -0.0477 C.ar    1  UNL1        0.0000
     16 C          -4.2730   -0.0425   -0.2905 C.ar    1  UNL1        0.0000
     17 C          -3.6377   -1.2655   -0.4648 C.ar    1  UNL1        0.0000
     18 C          -4.3758   -2.3974   -0.7138 C.ar    1  UNL1        0.0000
     19 S          -3.3703   -3.7681   -0.8896 S.2     1  UNL1        0.0000
     20 C          -1.9469   -2.8367   -0.6307 C.ar    1  UNL1        0.0000
     21 C          -2.2033   -1.5017   -0.4116 C.ar    1  UNL1        0.0000
     22 C          -1.2107   -0.4814   -0.1655 C.ar    1  UNL1        0.0000
     23 H           4.1605    1.9000    1.8877 H       1  UNL1        0.0000
     24 H           4.3240    2.3367   -0.5741 H       1  UNL1        0.0000
     25 H           6.1559   -0.2101    0.3709 H       1  UNL1        0.0000
     26 H           4.6615   -2.2944   -0.0979 H       1  UNL1        0.0000
     27 H           1.3802   -2.6177   -1.6445 H       1  UNL1        0.0000
     28 H           1.2177   -3.0531    0.8108 H       1  UNL1        0.0000
     29 H           1.8221    3.4996    0.7399 H       1  UNL1        0.0000
     30 H          -2.2497    3.7527    0.5152 H       1  UNL1        0.0000
     31 H          -3.7625    1.9856    0.1022 H       1  UNL1        0.0000
     32 H          -5.3415    0.1234   -0.3319 H       1  UNL1        0.0000
     33 H          -5.4487   -2.5008   -0.8032 H       1  UNL1        0.0000
     34 H          -1.0189   -3.3777   -0.6648 H       1  UNL1        0.0000
@<TRIPOS>BOND
     1     1     2    1
     2     2     3    2
     3     3     4    1
     4     4     5    1
     5     5     6    1
     6     6     7   ar
     7     7     8    1
     8     7     9   ar
     9     9    10   ar
    10    10    11   ar
    11    11    12   ar
    12    12    13   ar
    13    13    14   ar
    14    14    15   ar
    15    15    16   ar
    16    16    17   ar
    17    17    18   ar
    18    18    19   ar
    19    19    20   ar
    20    20    21   ar
    21    21    22   ar
    22     8     1    1
    23    13     9   ar
    24    22    14   ar
    25     8     4    2
    26    21    17   ar
    27    22     6   ar
    28     1    23    1
    29     1    24    1
    30     2    25    1
    31     3    26    1
    32     5    27    1
    33     5    28    1
    34    10    29    1
    35    12    30    1
    36    15    31    1
    37    16    32    1
    38    18    33    1
    39    20    34    1
