@<TRIPOS>MOLECULE
*****
 45 51 0 0 0
SMALL
GASTEIGER

@<TRIPOS>ATOM
      1 SI         -2.9609   -2.0480   -1.8870 Si      1  UNL1        0.0000
      2 C          -1.2611   -2.5401   -2.6126 C.2     1  UNL1        0.0000
      3 C          -0.2476   -1.9624   -1.9308 C.2     1  UNL1        0.0000
      4 C          -0.6497   -1.1285   -0.8348 C.ar    1  UNL1        0.0000
      5 C          -2.0480   -1.0144   -0.6038 C.ar    1  UNL1        0.0000
      6 C          -2.3991   -0.2213    0.4469 C.ar    1  UNL1        0.0000
      7 S          -0.9713    0.3939    1.1925 S.2     1  UNL1        0.0000
      8 C           0.0868   -0.4012    0.0706 C.ar    1  UNL1        0.0000
      9 C           1.5254   -0.2222    0.2086 C.ar    1  UNL1        0.0000
     10 C           2.2385   -0.6258    1.3521 C.ar    1  UNL1        0.0000
     11 C           3.6349   -0.4545    1.4862 C.ar    1  UNL1        0.0000
     12 C           4.4664    0.1421    0.5014 C.ar    1  UNL1        0.0000
     13 C           5.9053    0.3071    0.6837 C.ar    1  UNL1        0.0000
     14 N           6.4850    1.4182    0.2261 N.ar    1  UNL1        0.0000
     15 C           7.7921    1.5025    0.4547 C.ar    1  UNL1        0.0000
     16 N           8.5324    0.6072    1.1025 N.ar    1  UNL1        0.0000
     17 C           7.8444   -0.4455    1.5342 C.ar    1  UNL1        0.0000
     18 N           6.5397   -0.6524    1.3693 N.ar    1  UNL1        0.0000
     19 C           3.7938    0.5538   -0.6883 C.ar    1  UNL1        0.0000
     20 N           4.3451    1.0989   -1.7886 N.ar    1  UNL1        0.0000
     21 S           3.1240    1.4043   -2.8588 S.2     1  UNL1        0.0000
     22 N           1.8260    0.8263   -2.0156 N.ar    1  UNL1        0.0000
     23 C           2.2885    0.3721   -0.8364 C.ar    1  UNL1        0.0000
     24 C          -3.6990    0.1359    0.9732 C.ar    1  UNL1        0.0000
     25 C          -4.2568   -0.4290    2.1440 C.ar    1  UNL1        0.0000
     26 C          -5.5564   -0.0951    2.6453 C.ar    1  UNL1        0.0000
     27 C          -6.4264    0.8312    2.0290 C.ar    1  UNL1        0.0000
     28 C          -5.8684    1.3854    0.8760 C.ar    1  UNL1        0.0000
     29 C          -6.5285    2.3138    0.1100 C.ar    1  UNL1        0.0000
     30 S          -5.5737    2.8050   -1.2325 S.2     1  UNL1        0.0000
     31 C          -4.2720    1.7747   -0.7816 C.ar    1  UNL1        0.0000
     32 C          -4.5603    1.0603    0.3587 C.ar    1  UNL1        0.0000
     33 H          -3.7393   -1.2540   -2.8699 H       1  UNL1        0.0000
     34 H          -3.6531   -3.2369   -1.3290 H       1  UNL1        0.0000
     35 H          -1.1915   -3.1940   -3.4667 H       1  UNL1        0.0000
     36 H           0.7945   -2.1069   -2.1914 H       1  UNL1        0.0000
     37 H           1.6983   -1.0969    2.1747 H       1  UNL1        0.0000
     38 H           4.0974   -0.8001    2.4140 H       1  UNL1        0.0000
     39 H           8.2997    2.3848    0.0802 H       1  UNL1        0.0000
     40 H           8.3983   -1.2066    2.0732 H       1  UNL1        0.0000
     41 H          -3.6718   -1.1631    2.6994 H       1  UNL1        0.0000
     42 H          -5.8918   -0.5885    3.5585 H       1  UNL1        0.0000
     43 H          -7.4045    1.0687    2.4260 H       1  UNL1        0.0000
     44 H          -7.5123    2.7385    0.2545 H       1  UNL1        0.0000
     45 H          -3.3733    1.7625   -1.3837 H       1  UNL1        0.0000
@<TRIPOS>BOND
     1     1     2    1
     2     2     3    2
     3     3     4    1
     4     4     5   ar
     5     5     6   ar
     6     6     7   ar
     7     7     8   ar
     8     8     9    1
     9     9    10   ar
    10    10    11   ar
    11    11    12   ar
    12    12    13    1
    13    13    14   ar
    14    14    15   ar
    15    15    16   ar
    16    16    17   ar
    17    17    18   ar
    18    12    19   ar
    19    19    20   ar
    20    20    21   ar
    21    21    22   ar
    22    22    23   ar
    23     6    24    1
    24    24    25   ar
    25    25    26   ar
    26    26    27   ar
    27    27    28   ar
    28    28    29   ar
    29    29    30   ar
    30    30    31   ar
    31    31    32   ar
    32     5     1    1
    33    23     9   ar
    34    32    24   ar
    35     8     4   ar
    36    18    13   ar
    37    23    19   ar
    38    32    28   ar
    39     1    33    1
    40     1    34    1
    41     2    35    1
    42     3    36    1
    43    10    37    1
    44    11    38    1
    45    15    39    1
    46    17    40    1
    47    25    41    1
    48    26    42    1
    49    27    43    1
    50    29    44    1
    51    31    45    1
