@<TRIPOS>MOLECULE
*****
 43 48 0 0 0
SMALL
GASTEIGER

@<TRIPOS>ATOM
      1 SI         -4.4392   -1.8865   -2.0883 Si      1  UNL1        0.0000
      2 C          -2.8143   -2.5451   -2.8388 C.2     1  UNL1        0.0000
      3 C          -1.7390   -1.9901   -2.2400 C.2     1  UNL1        0.0000
      4 C          -2.0405   -1.0545   -1.1944 C.ar    1  UNL1        0.0000
      5 C          -3.4189   -0.8242   -0.9095 C.ar    1  UNL1        0.0000
      6 C          -3.6650    0.0821    0.0812 C.ar    1  UNL1        0.0000
      7 S          -2.1472    0.6812    0.6690 S.2     1  UNL1        0.0000
      8 C          -1.2097   -0.3017   -0.4005 C.ar    1  UNL1        0.0000
      9 C           0.2508   -0.2456   -0.3386 C.ar    1  UNL1        0.0000
     10 C           0.9388    0.9433   -0.6114 C.ar    1  UNL1        0.0000
     11 C           2.3359    0.9831   -0.5594 C.ar    1  UNL1        0.0000
     12 C           3.0697   -0.1655   -0.2351 C.ar    1  UNL1        0.0000
     13 C           2.3822   -1.3554    0.0317 C.ar    1  UNL1        0.0000
     14 C           0.9851   -1.3949   -0.0196 C.ar    1  UNL1        0.0000
     15 C           4.5200   -0.1174   -0.1706 C.ar    1  UNL1        0.0000
     16 S           5.5464   -1.0514   -1.2085 S.2     1  UNL1        0.0000
     17 C           7.0099   -0.4029   -0.5233 C.ar    1  UNL1        0.0000
     18 C           6.6554    0.4658    0.4453 C.ar    1  UNL1        0.0000
     19 C           7.2177    1.3379    1.4092 C.ar    1  UNL1        0.0000
     20 C           6.1429    1.9354    2.1032 C.ar    1  UNL1        0.0000
     21 N           4.9112    1.4864    1.6295 N.ar    1  UNL1        0.0000
     22 C           5.3019    0.6240    0.6446 C.ar    1  UNL1        0.0000
     23 C          -4.9092    0.5462    0.6291 C.ar    1  UNL1        0.0000
     24 C          -6.1501   -0.0607    0.7000 C.ar    1  UNL1        0.0000
     25 C          -7.0434    0.8374    1.3365 C.ar    1  UNL1        0.0000
     26 C          -6.3296    1.9706    1.6473 C.ar    1  UNL1        0.0000
     27 N          -5.0405    1.7816    1.2249 N.ar    1  UNL1        0.0000
     28 H          -5.1939   -2.9782   -1.4224 H       1  UNL1        0.0000
     29 H          -5.2054   -1.1172   -3.1002 H       1  UNL1        0.0000
     30 H          -2.8226   -3.2627   -3.6432 H       1  UNL1        0.0000
     31 H          -0.7194   -2.2221   -2.5272 H       1  UNL1        0.0000
     32 H           0.3925    1.8449   -0.8799 H       1  UNL1        0.0000
     33 H           2.8479    1.9150   -0.7907 H       1  UNL1        0.0000
     34 H           2.9286   -2.2604    0.2894 H       1  UNL1        0.0000
     35 H           0.4727   -2.3296    0.1991 H       1  UNL1        0.0000
     36 H           7.9840   -0.7083   -0.8761 H       1  UNL1        0.0000
     37 H           8.2660    1.5246    1.6007 H       1  UNL1        0.0000
     38 H           6.1608    2.6532    2.9134 H       1  UNL1        0.0000
     39 H           3.9662    1.7089    1.9193 H       1  UNL1        0.0000
     40 H          -6.3993   -1.0530    0.3505 H       1  UNL1        0.0000
     41 H          -8.0912    0.6697    1.5500 H       1  UNL1        0.0000
     42 H          -6.6232    2.8896    2.1366 H       1  UNL1        0.0000
     43 H          -4.2851    2.4463    1.3262 H       1  UNL1        0.0000
@<TRIPOS>BOND
     1     1     2    1
     2     2     3    2
     3     3     4    1
     4     4     5   ar
     5     5     6   ar
     6     6     7   ar
     7     7     8   ar
     8     8     9    1
     9     9    10   ar
    10    10    11   ar
    11    11    12   ar
    12    12    13   ar
    13    13    14   ar
    14    12    15    1
    15    15    16   ar
    16    16    17   ar
    17    17    18   ar
    18    18    19   ar
    19    19    20   ar
    20    20    21   ar
    21    21    22   ar
    22     6    23    1
    23    23    24   ar
    24    24    25   ar
    25    25    26   ar
    26    26    27   ar
    27     5     1    1
    28    14     9   ar
    29    22    15   ar
    30    27    23   ar
    31     8     4   ar
    32    22    18   ar
    33     1    28    1
    34     1    29    1
    35     2    30    1
    36     3    31    1
    37    10    32    1
    38    11    33    1
    39    13    34    1
    40    14    35    1
    41    17    36    1
    42    19    37    1
    43    20    38    1
    44    21    39    1
    45    24    40    1
    46    25    41    1
    47    26    42    1
    48    27    43    1
