@<TRIPOS>MOLECULE
*****
 39 44 0 0 0
SMALL
GASTEIGER

@<TRIPOS>ATOM
      1 SI         -2.7308   -2.8392   -1.2846 Si      1  UNL1        0.0000
      2 C          -0.9731   -3.3892   -1.7995 C.2     1  UNL1        0.0000
      3 C          -0.0320   -2.5487   -1.3173 C.2     1  UNL1        0.0000
      4 C          -0.5367   -1.4532   -0.5403 C.ar    1  UNL1        0.0000
      5 C          -1.9490   -1.3836   -0.3790 C.ar    1  UNL1        0.0000
      6 C          -2.3980   -0.3165    0.3404 C.ar    1  UNL1        0.0000
      7 S          -1.0448    0.6239    0.8552 S.2     1  UNL1        0.0000
      8 C           0.1108   -0.4135    0.0853 C.ar    1  UNL1        0.0000
      9 C           1.5352   -0.1090    0.1954 C.ar    1  UNL1        0.0000
     10 C           2.4317   -1.0387    0.7239 C.ar    1  UNL1        0.0000
     11 C           3.7891   -0.7251    0.8077 C.ar    1  UNL1        0.0000
     12 C           4.2292    0.5179    0.3572 C.ar    1  UNL1        0.0000
     13 N           3.3779    1.4384   -0.1638 N.ar    1  UNL1        0.0000
     14 C           2.0641    1.1062   -0.2300 C.ar    1  UNL1        0.0000
     15 C           5.6598    0.8752    0.4329 C.ar    1  UNL1        0.0000
     16 N           6.6083    0.0775    0.9004 N.ar    1  UNL1        0.0000
     17 C           7.8362    0.7053    0.8372 C.ar    1  UNL1        0.0000
     18 C           7.8261    1.9806    0.3212 C.ar    1  UNL1        0.0000
     19 S           6.2271    2.4181   -0.1024 S.2     1  UNL1        0.0000
     20 C          -3.7357    0.0484    0.6872 C.ar    1  UNL1        0.0000
     21 S          -4.7347   -0.9155    1.7123 S.2     1  UNL1        0.0000
     22 C          -6.0617    0.1788    1.6138 C.ar    1  UNL1        0.0000
     23 C          -5.6965    1.2033    0.8116 C.ar    1  UNL1        0.0000
     24 C          -6.3640    2.3688    0.3656 C.ar    1  UNL1        0.0000
     25 C          -5.5671    3.1482   -0.4808 C.ar    1  UNL1        0.0000
     26 S          -3.9502    2.5394   -0.8109 S.2     1  UNL1        0.0000
     27 C          -4.4095    1.1672    0.2734 C.ar    1  UNL1        0.0000
     28 H          -3.5303   -2.4582   -2.4752 H       1  UNL1        0.0000
     29 H          -3.3517   -3.8514   -0.3947 H       1  UNL1        0.0000
     30 H          -0.8237   -4.2672   -2.4070 H       1  UNL1        0.0000
     31 H           1.0270   -2.6811   -1.5084 H       1  UNL1        0.0000
     32 H           2.0828   -2.0042    1.0821 H       1  UNL1        0.0000
     33 H           4.4917   -1.4425    1.2223 H       1  UNL1        0.0000
     34 H           1.4289    1.8766   -0.6611 H       1  UNL1        0.0000
     35 H           8.7177    0.1808    1.1852 H       1  UNL1        0.0000
     36 H           8.6559    2.6568    0.1769 H       1  UNL1        0.0000
     37 H          -6.9903   -0.0062    2.1351 H       1  UNL1        0.0000
     38 H          -7.3757    2.6497    0.6319 H       1  UNL1        0.0000
     39 H          -5.8440    4.0819   -0.9514 H       1  UNL1        0.0000
@<TRIPOS>BOND
     1     1     2    1
     2     2     3    2
     3     3     4    1
     4     4     5   ar
     5     5     6   ar
     6     6     7   ar
     7     7     8   ar
     8     8     9    1
     9     9    10   ar
    10    10    11   ar
    11    11    12   ar
    12    12    13   ar
    13    13    14   ar
    14    12    15    1
    15    15    16   ar
    16    16    17   ar
    17    17    18   ar
    18    18    19   ar
    19     6    20    1
    20    20    21   ar
    21    21    22   ar
    22    22    23   ar
    23    23    24   ar
    24    24    25   ar
    25    25    26   ar
    26    26    27   ar
    27     5     1    1
    28    14     9   ar
    29    19    15   ar
    30    27    20   ar
    31     8     4   ar
    32    27    23   ar
    33     1    28    1
    34     1    29    1
    35     2    30    1
    36     3    31    1
    37    10    32    1
    38    11    33    1
    39    14    34    1
    40    17    35    1
    41    18    36    1
    42    22    37    1
    43    24    38    1
    44    25    39    1
