@<TRIPOS>MOLECULE
*****
 40 45 0 0 0
SMALL
GASTEIGER

@<TRIPOS>ATOM
      1 SI         -2.9827   -3.1136    0.1810 Si      1  UNL1        0.0000
      2 C          -1.2146   -3.7850   -0.0418 C.2     1  UNL1        0.0000
      3 C          -0.3139   -2.7829   -0.1300 C.2     1  UNL1        0.0000
      4 C          -0.8610   -1.4578   -0.0407 C.ar    1  UNL1        0.0000
      5 C          -2.2757   -1.3630    0.1240 C.ar    1  UNL1        0.0000
      6 C          -2.7750   -0.0930    0.1655 C.ar    1  UNL1        0.0000
      7 S          -1.4635    1.0216   -0.0045 S.2     1  UNL1        0.0000
      8 C          -0.2615   -0.2212   -0.1071 C.ar    1  UNL1        0.0000
      9 C           1.1293    0.1256   -0.2460 C.ar    1  UNL1        0.0000
     10 C           1.6858    0.9972   -1.1605 C.ar    1  UNL1        0.0000
     11 C           3.0980    1.1214   -1.0055 C.ar    1  UNL1        0.0000
     12 C           3.5922    0.3432    0.0251 C.ar    1  UNL1        0.0000
     13 S           2.3236   -0.5137    0.8005 S.2     1  UNL1        0.0000
     14 C           4.9763    0.2188    0.4966 C.ar    1  UNL1        0.0000
     15 C           5.8135    1.3381    0.5638 C.ar    1  UNL1        0.0000
     16 C           7.1303    1.2035    1.0024 C.ar    1  UNL1        0.0000
     17 C           7.5789   -0.0563    1.3597 C.ar    1  UNL1        0.0000
     18 N           6.8125   -1.1648    1.3061 N.ar    1  UNL1        0.0000
     19 C           5.5349   -1.0008    0.8783 C.ar    1  UNL1        0.0000
     20 C          -4.1241    0.3741    0.3152 C.ar    1  UNL1        0.0000
     21 S          -5.2141   -0.2727    1.5174 S.2     1  UNL1        0.0000
     22 C          -6.5215    0.7722    1.0703 C.ar    1  UNL1        0.0000
     23 C          -6.0906    1.5491    0.0613 C.ar    1  UNL1        0.0000
     24 O          -6.8108    2.5076   -0.5814 O.2     1  UNL1        0.0000
     25 C          -5.8614    2.9401   -1.4891 C.ar    1  UNL1        0.0000
     26 C          -4.6332    2.2729   -1.3967 C.ar    1  UNL1        0.0000
     27 C          -4.7968    1.3436   -0.3511 C.ar    1  UNL1        0.0000
     28 H          -3.8279   -3.4583   -0.9892 H       1  UNL1        0.0000
     29 H          -3.5299   -3.5100    1.5020 H       1  UNL1        0.0000
     30 H          -1.0232   -4.8450   -0.0875 H       1  UNL1        0.0000
     31 H           0.7459   -2.9632   -0.2685 H       1  UNL1        0.0000
     32 H           1.1101    1.5213   -1.9141 H       1  UNL1        0.0000
     33 H           3.7198    1.7501   -1.6318 H       1  UNL1        0.0000
     34 H           5.4459    2.3237    0.2896 H       1  UNL1        0.0000
     35 H           7.7883    2.0629    1.0661 H       1  UNL1        0.0000
     36 H           8.5958   -0.2118    1.7085 H       1  UNL1        0.0000
     37 H           4.9617   -1.9236    0.8418 H       1  UNL1        0.0000
     38 H          -7.4897    0.7637    1.5487 H       1  UNL1        0.0000
     39 H          -6.2080    3.7318   -2.1407 H       1  UNL1        0.0000
     40 H          -3.7637    2.4541   -2.0120 H       1  UNL1        0.0000
@<TRIPOS>BOND
     1     1     2    1
     2     2     3    2
     3     3     4    1
     4     4     5   ar
     5     5     6   ar
     6     6     7   ar
     7     7     8   ar
     8     8     9    1
     9     9    10   ar
    10    10    11   ar
    11    11    12   ar
    12    12    13   ar
    13    12    14    1
    14    14    15   ar
    15    15    16   ar
    16    16    17   ar
    17    17    18   ar
    18    18    19   ar
    19     6    20    1
    20    20    21   ar
    21    21    22   ar
    22    22    23   ar
    23    23    24   ar
    24    24    25   ar
    25    25    26   ar
    26    26    27   ar
    27     5     1    1
    28    13     9   ar
    29    19    14   ar
    30    27    20   ar
    31     8     4   ar
    32    27    23   ar
    33     1    28    1
    34     1    29    1
    35     2    30    1
    36     3    31    1
    37    10    32    1
    38    11    33    1
    39    15    34    1
    40    16    35    1
    41    17    36    1
    42    19    37    1
    43    22    38    1
    44    25    39    1
    45    26    40    1
