@<TRIPOS>MOLECULE
*****
 47 53 0 0 0
SMALL
GASTEIGER

@<TRIPOS>ATOM
      1 SI         -0.4215    3.2583   -1.0134 Si      1  UNL1        0.0000
      2 C          -2.3140    3.3984   -1.3092 C.2     1  UNL1        0.0000
      3 C          -2.9254    2.2043   -1.1544 C.2     1  UNL1        0.0000
      4 C          -2.0547    1.1190   -0.8117 C.ar    1  UNL1        0.0000
      5 C          -0.6716    1.4171   -0.6760 C.ar    1  UNL1        0.0000
      6 C           0.1359    0.3620   -0.3473 C.ar    1  UNL1        0.0000
      7 S          -0.8610   -1.0513   -0.2036 S.2     1  UNL1        0.0000
      8 C          -2.3201   -0.2066   -0.5785 C.ar    1  UNL1        0.0000
      9 C          -3.5897   -0.9385   -0.6059 C.ar    1  UNL1        0.0000
     10 C          -3.8929   -1.6832   -1.7579 C.ar    1  UNL1        0.0000
     11 C          -5.0908   -2.3827   -1.8546 C.ar    1  UNL1        0.0000
     12 C          -6.0016   -2.3429   -0.8020 C.ar    1  UNL1        0.0000
     13 C          -5.7302   -1.6063    0.3615 C.ar    1  UNL1        0.0000
     14 C          -6.6632   -1.5784    1.4117 C.ar    1  UNL1        0.0000
     15 C          -6.4131   -0.8547    2.5767 C.ar    1  UNL1        0.0000
     16 C          -5.2247   -0.1495    2.7085 C.ar    1  UNL1        0.0000
     17 C          -4.2869   -0.1672    1.6740 C.ar    1  UNL1        0.0000
     18 C          -4.5120   -0.8896    0.4771 C.ar    1  UNL1        0.0000
     19 C           1.5677    0.3579   -0.1428 C.ar    1  UNL1        0.0000
     20 N           2.2810    1.4605   -0.2661 N.ar    1  UNL1        0.0000
     21 C           3.6141    1.1894   -0.0206 C.ar    1  UNL1        0.0000
     22 C           3.9266   -0.1206    0.2902 C.ar    1  UNL1        0.0000
     23 S           2.4772   -1.0409    0.2725 S.2     1  UNL1        0.0000
     24 C           5.2233   -0.6729    0.5758 C.ar    1  UNL1        0.0000
     25 S           5.4666   -2.1444    1.4881 S.2     1  UNL1        0.0000
     26 C           7.1954   -2.0712    1.3890 C.ar    1  UNL1        0.0000
     27 C           7.5196   -0.9680    0.6881 C.ar    1  UNL1        0.0000
     28 N           8.7777   -0.5418    0.3774 N.ar    1  UNL1        0.0000
     29 C           8.4995    0.6147   -0.3467 C.ar    1  UNL1        0.0000
     30 C           7.1102    0.8431   -0.4470 C.ar    1  UNL1        0.0000
     31 C           6.4553   -0.2113    0.2487 C.ar    1  UNL1        0.0000
     32 H           0.2978    3.5729   -2.2739 H       1  UNL1        0.0000
     33 H          -0.0493    4.0678    0.1746 H       1  UNL1        0.0000
     34 H          -2.7633    4.3446   -1.5630 H       1  UNL1        0.0000
     35 H          -3.9942    2.0652   -1.2756 H       1  UNL1        0.0000
     36 H          -3.1901   -1.7157   -2.5881 H       1  UNL1        0.0000
     37 H          -5.3157   -2.9572   -2.7492 H       1  UNL1        0.0000
     38 H          -6.9335   -2.8966   -0.8969 H       1  UNL1        0.0000
     39 H          -7.5997   -2.1261    1.3295 H       1  UNL1        0.0000
     40 H          -7.1455   -0.8450    3.3795 H       1  UNL1        0.0000
     41 H          -5.0209    0.4145    3.6149 H       1  UNL1        0.0000
     42 H          -3.3647    0.3932    1.8146 H       1  UNL1        0.0000
     43 H           4.3245    2.0049   -0.0762 H       1  UNL1        0.0000
     44 H           7.8358   -2.8186    1.8357 H       1  UNL1        0.0000
     45 H           9.6613   -0.9740    0.6188 H       1  UNL1        0.0000
     46 H           9.3228    1.1935   -0.7458 H       1  UNL1        0.0000
     47 H           6.6579    1.6738   -0.9720 H       1  UNL1        0.0000
@<TRIPOS>BOND
     1     1     2    1
     2     2     3    2
     3     3     4    1
     4     4     5   ar
     5     5     6   ar
     6     6     7   ar
     7     7     8   ar
     8     8     9    1
     9     9    10   ar
    10    10    11   ar
    11    11    12   ar
    12    12    13   ar
    13    13    14   ar
    14    14    15   ar
    15    15    16   ar
    16    16    17   ar
    17    17    18   ar
    18     6    19    1
    19    19    20   ar
    20    20    21   ar
    21    21    22   ar
    22    22    23   ar
    23    22    24    1
    24    24    25   ar
    25    25    26   ar
    26    26    27   ar
    27    27    28   ar
    28    28    29   ar
    29    29    30   ar
    30    30    31   ar
    31     5     1    1
    32    18     9   ar
    33    23    19   ar
    34    31    24   ar
    35     8     4   ar
    36    18    13   ar
    37    31    27   ar
    38     1    32    1
    39     1    33    1
    40     2    34    1
    41     3    35    1
    42    10    36    1
    43    11    37    1
    44    12    38    1
    45    14    39    1
    46    15    40    1
    47    16    41    1
    48    17    42    1
    49    21    43    1
    50    26    44    1
    51    28    45    1
    52    29    46    1
    53    30    47    1
