@<TRIPOS>MOLECULE
*****
 36 42 0 0 0
SMALL
GASTEIGER

@<TRIPOS>ATOM
      1 SI         -0.7695   -2.1196    0.8494 Si      1  UNL1        0.0000
      2 C          -1.9445   -0.6019    0.7353 C.2     1  UNL1        0.0000
      3 C          -1.2575    0.5385    0.4840 C.2     1  UNL1        0.0000
      4 C           0.1472    0.3045    0.3992 C.ar    1  UNL1        0.0000
      5 O           1.1620    1.1972    0.1750 O.2     1  UNL1        0.0000
      6 C           2.2967    0.4402    0.1912 C.ar    1  UNL1        0.0000
      7 C           2.0180   -0.8762    0.4159 C.ar    1  UNL1        0.0000
      8 N           3.2082   -1.5784    0.4190 N.ar    1  UNL1        0.0000
      9 C           4.2499   -0.6875    0.1928 C.ar    1  UNL1        0.0000
     10 C           5.6404   -0.8626    0.0985 C.ar    1  UNL1        0.0000
     11 C           6.4581    0.2665   -0.1443 C.ar    1  UNL1        0.0000
     12 C           5.8331    1.5375   -0.2830 C.ar    1  UNL1        0.0000
     13 N           6.4544    2.7107   -0.5152 N.ar    1  UNL1        0.0000
     14 S           5.2506    3.8809   -0.5880 S.2     1  UNL1        0.0000
     15 N           3.8817    2.9460   -0.3269 N.ar    1  UNL1        0.0000
     16 C           4.3928    1.7359   -0.1878 C.ar    1  UNL1        0.0000
     17 C           3.6638    0.5535    0.0551 C.ar    1  UNL1        0.0000
     18 C           0.6425   -0.9800    0.5516 C.ar    1  UNL1        0.0000
     19 C          -3.3601   -0.6871    0.8231 C.ar    1  UNL1        0.0000
     20 S          -4.1172   -1.6172    2.0820 S.2     1  UNL1        0.0000
     21 C          -5.7016   -1.2272    1.5665 C.ar    1  UNL1        0.0000
     22 C          -5.6806   -0.4075    0.4710 C.ar    1  UNL1        0.0000
     23 N          -6.8138    0.0471   -0.1325 N.ar    1  UNL1        0.0000
     24 C          -6.5057    0.8405   -1.1949 C.ar    1  UNL1        0.0000
     25 C          -5.2085    1.1506   -1.6199 C.ar    1  UNL1        0.0000
     26 N          -4.0640    0.7056   -1.0342 N.ar    1  UNL1        0.0000
     27 C          -4.3387   -0.0917    0.0415 C.ar    1  UNL1        0.0000
     28 H          -0.7650   -2.7276    2.2051 H       1  UNL1        0.0000
     29 H          -1.0039   -3.0909   -0.2500 H       1  UNL1        0.0000
     30 H          -1.6846    1.5229    0.3441 H       1  UNL1        0.0000
     31 H           3.2758   -2.5773    0.5648 H       1  UNL1        0.0000
     32 H           6.0911   -1.8456    0.2086 H       1  UNL1        0.0000
     33 H           7.5359    0.1740   -0.2240 H       1  UNL1        0.0000
     34 H          -6.5664   -1.6114    2.0875 H       1  UNL1        0.0000
     35 H          -7.3634    1.2433   -1.7266 H       1  UNL1        0.0000
     36 H          -5.0572    1.7944   -2.4821 H       1  UNL1        0.0000
@<TRIPOS>BOND
     1     1     2    1
     2     2     3    2
     3     3     4    1
     4     4     5   ar
     5     5     6   ar
     6     6     7   ar
     7     7     8   ar
     8     8     9   ar
     9     9    10   ar
    10    10    11   ar
    11    11    12   ar
    12    12    13   ar
    13    13    14   ar
    14    14    15   ar
    15    15    16   ar
    16    16    17   ar
    17     7    18   ar
    18     2    19    1
    19    19    20   ar
    20    20    21   ar
    21    21    22   ar
    22    22    23   ar
    23    23    24   ar
    24    24    25   ar
    25    25    26   ar
    26    26    27   ar
    27    18     1    1
    28    27    19   ar
    29    18     4   ar
    30    27    22   ar
    31    17     6   ar
    32    17     9   ar
    33    16    12   ar
    34     1    28    1
    35     1    29    1
    36     3    30    1
    37     8    31    1
    38    10    32    1
    39    11    33    1
    40    21    34    1
    41    24    35    1
    42    25    36    1
