@<TRIPOS>MOLECULE
*****
 46 52 0 0 0
SMALL
GASTEIGER

@<TRIPOS>ATOM
      1 SI         -0.2610    1.3863    2.8779 Si      1  UNL1        0.0000
      2 C          -2.1201    1.7033    3.2113 C.2     1  UNL1        0.0000
      3 C          -2.8924    1.1654    2.2425 C.2     1  UNL1        0.0000
      4 C          -2.1747    0.4909    1.2001 C.ar    1  UNL1        0.0000
      5 C          -0.7567    0.4666    1.3097 C.ar    1  UNL1        0.0000
      6 C          -0.1111   -0.2054    0.3141 C.ar    1  UNL1        0.0000
      7 S          -1.2798   -0.8093   -0.8065 S.2     1  UNL1        0.0000
      8 C          -2.6198   -0.1656    0.0782 C.ar    1  UNL1        0.0000
      9 C          -3.9645   -0.3755   -0.4233 C.ar    1  UNL1        0.0000
     10 C          -4.6106   -1.6351   -0.4430 C.ar    1  UNL1        0.0000
     11 C          -5.9463   -1.8374   -0.9190 C.ar    1  UNL1        0.0000
     12 C          -6.7695   -0.8060   -1.4214 C.ar    1  UNL1        0.0000
     13 C          -6.1261    0.4322   -1.4024 C.ar    1  UNL1        0.0000
     14 C          -6.7290    1.5820   -1.8485 C.ar    1  UNL1        0.0000
     15 S          -5.6759    2.9327   -1.7052 S.2     1  UNL1        0.0000
     16 C          -4.4091    1.9720   -1.0487 C.ar    1  UNL1        0.0000
     17 C          -4.7805    0.6525   -0.9260 C.ar    1  UNL1        0.0000
     18 C           1.2896   -0.4167    0.1207 C.ar    1  UNL1        0.0000
     19 S           2.4006    0.8718   -0.1355 S.2     1  UNL1        0.0000
     20 C           3.7640   -0.1823   -0.2647 C.ar    1  UNL1        0.0000
     21 C           5.0952    0.3556   -0.5242 C.ar    1  UNL1        0.0000
     22 C           5.9324   -0.1984   -1.4882 C.ar    1  UNL1        0.0000
     23 C           7.1955    0.3573   -1.6762 C.ar    1  UNL1        0.0000
     24 C           7.5836    1.4425   -0.8998 C.ar    1  UNL1        0.0000
     25 C           6.6880    1.9305    0.0368 C.ar    1  UNL1        0.0000
     26 N           5.4580    1.4119    0.2424 N.ar    1  UNL1        0.0000
     27 C           3.3120   -1.4518   -0.0983 C.ar    1  UNL1        0.0000
     28 C           3.9438   -2.7247   -0.0621 C.ar    1  UNL1        0.0000
     29 C           3.0426   -3.7698    0.1658 C.ar    1  UNL1        0.0000
     30 S           1.3591   -3.3160    0.3683 S.2     1  UNL1        0.0000
     31 C           1.9423   -1.6200    0.1220 C.ar    1  UNL1        0.0000
     32 H           0.4409    2.6723    2.6444 H       1  UNL1        0.0000
     33 H           0.3136    0.5211    3.9382 H       1  UNL1        0.0000
     34 H          -2.4403    2.2493    4.0838 H       1  UNL1        0.0000
     35 H          -3.9749    1.2306    2.2447 H       1  UNL1        0.0000
     36 H          -4.0683   -2.5055   -0.0710 H       1  UNL1        0.0000
     37 H          -6.3487   -2.8507   -0.8892 H       1  UNL1        0.0000
     38 H          -7.7762   -0.9819   -1.7768 H       1  UNL1        0.0000
     39 H          -7.7226    1.7148   -2.2537 H       1  UNL1        0.0000
     40 H          -3.4679    2.4403   -0.7945 H       1  UNL1        0.0000
     41 H           5.6098   -1.0370   -2.0960 H       1  UNL1        0.0000
     42 H           7.8681   -0.0505   -2.4255 H       1  UNL1        0.0000
     43 H           8.5590    1.8999   -1.0229 H       1  UNL1        0.0000
     44 H           6.9427    2.7781    0.6667 H       1  UNL1        0.0000
     45 H           5.0064   -2.8974   -0.1820 H       1  UNL1        0.0000
     46 H           3.2788   -4.8229    0.2375 H       1  UNL1        0.0000
@<TRIPOS>BOND
     1     1     2    1
     2     2     3    2
     3     3     4    1
     4     4     5   ar
     5     5     6   ar
     6     6     7   ar
     7     7     8   ar
     8     8     9    1
     9     9    10   ar
    10    10    11   ar
    11    11    12   ar
    12    12    13   ar
    13    13    14   ar
    14    14    15   ar
    15    15    16   ar
    16    16    17   ar
    17     6    18    1
    18    18    19   ar
    19    19    20   ar
    20    20    21    1
    21    21    22   ar
    22    22    23   ar
    23    23    24   ar
    24    24    25   ar
    25    25    26   ar
    26    20    27   ar
    27    27    28   ar
    28    28    29   ar
    29    29    30   ar
    30    30    31   ar
    31     5     1    1
    32    17     9   ar
    33    31    18   ar
    34     8     4   ar
    35    17    13   ar
    36    26    21   ar
    37    31    27   ar
    38     1    32    1
    39     1    33    1
    40     2    34    1
    41     3    35    1
    42    10    36    1
    43    11    37    1
    44    12    38    1
    45    14    39    1
    46    16    40    1
    47    22    41    1
    48    23    42    1
    49    24    43    1
    50    25    44    1
    51    28    45    1
    52    29    46    1
