@<TRIPOS>MOLECULE
*****
 46 52 0 0 0
SMALL
GASTEIGER

@<TRIPOS>ATOM
      1 SI          1.5578   -2.9379    0.0160 Si      1  UNL1        0.0000
      2 C           3.4548   -3.1333    0.1675 C.2     1  UNL1        0.0000
      3 C           4.0731   -1.9324    0.1750 C.2     1  UNL1        0.0000
      4 C           3.1995   -0.7987    0.0760 C.ar    1  UNL1        0.0000
      5 C           1.8071   -1.0718   -0.0351 C.ar    1  UNL1        0.0000
      6 C           1.0057    0.0282   -0.1238 C.ar    1  UNL1        0.0000
      7 S           1.9924    1.4455   -0.0766 S.2     1  UNL1        0.0000
      8 C           3.4688    0.5496    0.0646 C.ar    1  UNL1        0.0000
      9 C           4.7396    1.2668    0.1774 C.ar    1  UNL1        0.0000
     10 C           5.5473    1.0939    1.3099 C.ar    1  UNL1        0.0000
     11 C           6.7667    1.7659    1.4219 C.ar    1  UNL1        0.0000
     12 C           7.1908    2.6154    0.4016 C.ar    1  UNL1        0.0000
     13 C           6.3973    2.7943   -0.7302 C.ar    1  UNL1        0.0000
     14 C           5.1775    2.1229   -0.8425 C.ar    1  UNL1        0.0000
     15 C          -0.4180    0.1041   -0.2535 C.ar    1  UNL1        0.0000
     16 S          -1.4171    0.9915    0.8602 S.2     1  UNL1        0.0000
     17 C          -2.8966    0.5605    0.0642 C.ar    1  UNL1        0.0000
     18 C          -4.1936    0.9610    0.5088 C.ar    1  UNL1        0.0000
     19 S          -4.5792    2.6096    0.9242 S.2     1  UNL1        0.0000
     20 C          -6.2376    2.2540    1.2978 C.ar    1  UNL1        0.0000
     21 C          -6.4286    0.9340    1.1052 C.ar    1  UNL1        0.0000
     22 N          -7.5869    0.2386    1.2931 N.ar    1  UNL1        0.0000
     23 C          -7.1834   -1.0530    0.9590 C.ar    1  UNL1        0.0000
     24 C          -5.8213   -1.0940    0.5916 C.ar    1  UNL1        0.0000
     25 C          -5.3218    0.2337    0.6803 C.ar    1  UNL1        0.0000
     26 C          -2.5857   -0.2100   -1.0033 C.ar    1  UNL1        0.0000
     27 N          -3.4385   -0.7455   -1.9287 N.ar    1  UNL1        0.0000
     28 C          -2.5508   -1.4130   -2.7688 C.ar    1  UNL1        0.0000
     29 C          -1.2152   -1.2555   -2.3437 C.ar    1  UNL1        0.0000
     30 C          -1.2394   -0.4574   -1.1693 C.ar    1  UNL1        0.0000
     31 H           1.0838   -3.5272   -1.2616 H       1  UNL1        0.0000
     32 H           0.8857   -3.4379    1.2411 H       1  UNL1        0.0000
     33 H           3.9085   -4.1092    0.2283 H       1  UNL1        0.0000
     34 H           5.1496   -1.8228    0.2450 H       1  UNL1        0.0000
     35 H           5.2245    0.4406    2.1175 H       1  UNL1        0.0000
     36 H           7.3824    1.6284    2.3068 H       1  UNL1        0.0000
     37 H           8.1388    3.1398    0.4892 H       1  UNL1        0.0000
     38 H           6.7264    3.4563   -1.5268 H       1  UNL1        0.0000
     39 H           4.5726    2.2680   -1.7348 H       1  UNL1        0.0000
     40 H          -6.9334    3.0129    1.6264 H       1  UNL1        0.0000
     41 H          -8.4844    0.5914    1.6030 H       1  UNL1        0.0000
     42 H          -7.9045   -1.8584    1.0209 H       1  UNL1        0.0000
     43 H          -5.2774   -1.9871    0.3119 H       1  UNL1        0.0000
     44 H          -4.4468   -0.6504   -1.9701 H       1  UNL1        0.0000
     45 H          -2.9423   -1.9467   -3.6255 H       1  UNL1        0.0000
     46 H          -0.3483   -1.6644   -2.8462 H       1  UNL1        0.0000
@<TRIPOS>BOND
     1     1     2    1
     2     2     3    2
     3     3     4    1
     4     4     5   ar
     5     5     6   ar
     6     6     7   ar
     7     7     8   ar
     8     8     9    1
     9     9    10   ar
    10    10    11   ar
    11    11    12   ar
    12    12    13   ar
    13    13    14   ar
    14     6    15    1
    15    15    16   ar
    16    16    17   ar
    17    17    18    1
    18    18    19   ar
    19    19    20   ar
    20    20    21   ar
    21    21    22   ar
    22    22    23   ar
    23    23    24   ar
    24    24    25   ar
    25    17    26   ar
    26    26    27   ar
    27    27    28   ar
    28    28    29   ar
    29    29    30   ar
    30     5     1    1
    31    14     9   ar
    32    30    15   ar
    33     8     4   ar
    34    25    18   ar
    35    30    26   ar
    36    25    21   ar
    37     1    31    1
    38     1    32    1
    39     2    33    1
    40     3    34    1
    41    10    35    1
    42    11    36    1
    43    12    37    1
    44    13    38    1
    45    14    39    1
    46    20    40    1
    47    22    41    1
    48    23    42    1
    49    24    43    1
    50    27    44    1
    51    28    45    1
    52    29    46    1
