@<TRIPOS>MOLECULE
*****
 49 55 0 0 0
SMALL
GASTEIGER

@<TRIPOS>ATOM
      1 SI         -1.4413    1.7570    2.2742 Si      1  UNL1        0.0000
      2 C          -3.3120    1.9329    2.6577 C.2     1  UNL1        0.0000
      3 C          -4.0695    1.3388    1.7096 C.2     1  UNL1        0.0000
      4 C          -3.3344    0.7231    0.6427 C.ar    1  UNL1        0.0000
      5 C          -1.9176    0.8039    0.7207 C.ar    1  UNL1        0.0000
      6 C          -1.2462    0.1964   -0.2975 C.ar    1  UNL1        0.0000
      7 S          -2.3842   -0.4909   -1.3967 S.2     1  UNL1        0.0000
      8 C          -3.7557    0.0367   -0.4729 C.ar    1  UNL1        0.0000
      9 C          -5.1033   -0.2583   -0.9550 C.ar    1  UNL1        0.0000
     10 C          -6.0280    0.7653   -1.1800 C.ar    1  UNL1        0.0000
     11 C          -7.3104    0.4571   -1.6302 C.ar    1  UNL1        0.0000
     12 C          -7.6315   -0.8739   -1.8398 C.ar    1  UNL1        0.0000
     13 N          -6.7722   -1.8936   -1.6324 N.ar    1  UNL1        0.0000
     14 C          -5.5306   -1.5619   -1.1978 C.ar    1  UNL1        0.0000
     15 C           0.1901    0.0728   -0.5539 C.ar    1  UNL1        0.0000
     16 C           0.7710    1.0028   -1.4256 C.ar    1  UNL1        0.0000
     17 C           2.1348    0.9667   -1.6863 C.ar    1  UNL1        0.0000
     18 C           2.9509    0.0032   -1.0778 C.ar    1  UNL1        0.0000
     19 C           4.3708    0.0343   -1.3917 C.ar    1  UNL1        0.0000
     20 S           5.0467   -0.6440   -2.8326 S.2     1  UNL1        0.0000
     21 C           6.6752   -0.1819   -2.4094 C.ar    1  UNL1        0.0000
     22 C           6.6239    0.4573   -1.2210 C.ar    1  UNL1        0.0000
     23 C           7.4664    1.0850   -0.2903 C.ar    1  UNL1        0.0000
     24 C           6.6132    1.5194    0.7333 C.ar    1  UNL1        0.0000
     25 O           5.2789    1.2166    0.5286 O.2     1  UNL1        0.0000
     26 C           5.3708    0.5765   -0.6698 C.ar    1  UNL1        0.0000
     27 C           2.3884   -0.9558   -0.1879 C.ar    1  UNL1        0.0000
     28 C           3.1647   -1.9547    0.4517 C.ar    1  UNL1        0.0000
     29 C           2.6016   -2.8911    1.3187 C.ar    1  UNL1        0.0000
     30 C           1.2411   -2.8598    1.5707 C.ar    1  UNL1        0.0000
     31 C           0.4486   -1.8907    0.9567 C.ar    1  UNL1        0.0000
     32 C           0.9900   -0.9220    0.0748 C.ar    1  UNL1        0.0000
     33 H          -0.7810    0.9379    3.3205 H       1  UNL1        0.0000
     34 H          -0.8431    3.0904    2.0149 H       1  UNL1        0.0000
     35 H          -3.6461    2.4473    3.5441 H       1  UNL1        0.0000
     36 H          -5.1526    1.3171    1.7508 H       1  UNL1        0.0000
     37 H          -5.7522    1.8041   -1.0168 H       1  UNL1        0.0000
     38 H          -8.0398    1.2375   -1.8156 H       1  UNL1        0.0000
     39 H          -8.6177   -1.1637   -2.1914 H       1  UNL1        0.0000
     40 H          -4.8703   -2.4105   -1.0375 H       1  UNL1        0.0000
     41 H           0.1584    1.7647   -1.9036 H       1  UNL1        0.0000
     42 H           2.5635    1.7016   -2.3649 H       1  UNL1        0.0000
     43 H           7.5107   -0.4120   -3.0549 H       1  UNL1        0.0000
     44 H           8.5377    1.2203   -0.3251 H       1  UNL1        0.0000
     45 H           6.8028    2.0496    1.6575 H       1  UNL1        0.0000
     46 H           4.2373   -2.0166    0.2788 H       1  UNL1        0.0000
     47 H           3.2295   -3.6422    1.7903 H       1  UNL1        0.0000
     48 H           0.7903   -3.5872    2.2403 H       1  UNL1        0.0000
     49 H          -0.6180   -1.9057    1.1738 H       1  UNL1        0.0000
@<TRIPOS>BOND
     1     1     2    1
     2     2     3    2
     3     3     4    1
     4     4     5   ar
     5     5     6   ar
     6     6     7   ar
     7     7     8   ar
     8     8     9    1
     9     9    10   ar
    10    10    11   ar
    11    11    12   ar
    12    12    13   ar
    13    13    14   ar
    14     6    15    1
    15    15    16   ar
    16    16    17   ar
    17    17    18   ar
    18    18    19    1
    19    19    20   ar
    20    20    21   ar
    21    21    22   ar
    22    22    23   ar
    23    23    24   ar
    24    24    25   ar
    25    25    26   ar
    26    18    27   ar
    27    27    28   ar
    28    28    29   ar
    29    29    30   ar
    30    30    31   ar
    31    31    32   ar
    32     5     1    1
    33    14     9   ar
    34    32    15   ar
    35     8     4   ar
    36    26    19   ar
    37    32    27   ar
    38    26    22   ar
    39     1    33    1
    40     1    34    1
    41     2    35    1
    42     3    36    1
    43    10    37    1
    44    11    38    1
    45    12    39    1
    46    14    40    1
    47    16    41    1
    48    17    42    1
    49    21    43    1
    50    23    44    1
    51    24    45    1
    52    28    46    1
    53    29    47    1
    54    30    48    1
    55    31    49    1
