@<TRIPOS>MOLECULE
*****
 44 49 0 0 0
SMALL
GASTEIGER

@<TRIPOS>ATOM
      1 SI          2.3374   -0.9065   -3.2645 Si      1  UNL1        0.0000
      2 C           4.2334   -1.1056   -3.2502 C.2     1  UNL1        0.0000
      3 C           4.7600   -0.7386   -2.0619 C.2     1  UNL1        0.0000
      4 C           3.8130   -0.2774   -1.0843 C.ar    1  UNL1        0.0000
      5 C           2.4436   -0.2853   -1.4829 C.ar    1  UNL1        0.0000
      6 C           1.5391    0.1094   -0.5369 C.ar    1  UNL1        0.0000
      7 S           2.4207    0.5203    0.8997 S.2     1  UNL1        0.0000
      8 C           3.9701    0.1724    0.2076 C.ar    1  UNL1        0.0000
      9 C           5.1621    0.3763    0.9893 C.ar    1  UNL1        0.0000
     10 C           6.4485    0.6868    0.5719 C.ar    1  UNL1        0.0000
     11 C           7.2612    0.7915    1.7277 C.ar    1  UNL1        0.0000
     12 C           6.4313    0.5520    2.7930 C.ar    1  UNL1        0.0000
     13 O           5.1697    0.3069    2.3637 O.2     1  UNL1        0.0000
     14 C           0.1330    0.2308   -0.5885 C.2     1  UNL1        0.0000
     15 SI         -1.0511   -0.6747    0.5727 Si      1  UNL1        0.0000
     16 C          -2.4654    0.1521   -0.3794 C.2     1  UNL1        0.0000
     17 C          -1.9892    0.9291   -1.3748 C.2     1  UNL1        0.0000
     18 C          -0.5379    0.9810   -1.4860 C.2     1  UNL1        0.0000
     19 C          -3.8581   -0.1215   -0.0998 C.ar    1  UNL1        0.0000
     20 C          -4.7429   -0.7626   -1.0044 C.ar    1  UNL1        0.0000
     21 C          -6.1270   -1.0415   -0.7223 C.ar    1  UNL1        0.0000
     22 C          -6.7751   -0.7044    0.4880 C.ar    1  UNL1        0.0000
     23 C          -5.8954   -0.0648    1.3515 C.ar    1  UNL1        0.0000
     24 C          -6.2035    0.4121    2.5994 C.ar    1  UNL1        0.0000
     25 N          -5.0567    0.9919    3.0987 N.ar    1  UNL1        0.0000
     26 C          -4.0295    0.8907    2.1819 C.ar    1  UNL1        0.0000
     27 C          -4.5189    0.2176    1.0874 C.ar    1  UNL1        0.0000
     28 H           1.6736   -2.2256   -3.4195 H       1  UNL1        0.0000
     29 H           1.9279    0.1318   -4.2424 H       1  UNL1        0.0000
     30 H           4.7573   -1.4872   -4.1114 H       1  UNL1        0.0000
     31 H           5.8207   -0.8084   -1.8562 H       1  UNL1        0.0000
     32 H           6.7637    0.8415   -0.4499 H       1  UNL1        0.0000
     33 H           8.3154    1.0247    1.7765 H       1  UNL1        0.0000
     34 H           6.5729    0.5255    3.8642 H       1  UNL1        0.0000
     35 H          -1.0233   -2.1486    0.3726 H       1  UNL1        0.0000
     36 H          -0.9534   -0.1973    1.9781 H       1  UNL1        0.0000
     37 H          -2.6154    1.4832   -2.0638 H       1  UNL1        0.0000
     38 H          -0.0703    1.5939   -2.2472 H       1  UNL1        0.0000
     39 H          -4.3566   -1.0748   -1.9758 H       1  UNL1        0.0000
     40 H          -6.7100   -1.5440   -1.4948 H       1  UNL1        0.0000
     41 H          -7.8156   -0.9154    0.6880 H       1  UNL1        0.0000
     42 H          -7.1177    0.4067    3.1773 H       1  UNL1        0.0000
     43 H          -4.9814    1.4401    4.0028 H       1  UNL1        0.0000
     44 H          -3.0605    1.3161    2.4048 H       1  UNL1        0.0000
@<TRIPOS>BOND
     1     1     2    1
     2     2     3    2
     3     3     4    1
     4     4     5   ar
     5     5     6   ar
     6     6     7   ar
     7     7     8   ar
     8     8     9    1
     9     9    10   ar
    10    10    11   ar
    11    11    12   ar
    12    12    13   ar
    13     6    14    1
    14    14    15    1
    15    15    16    1
    16    16    17    2
    17    17    18    1
    18    16    19    1
    19    19    20   ar
    20    20    21   ar
    21    21    22   ar
    22    22    23   ar
    23    23    24   ar
    24    24    25   ar
    25    25    26   ar
    26    26    27   ar
    27     5     1    1
    28    13     9   ar
    29    18    14    2
    30    27    19   ar
    31     8     4   ar
    32    27    23   ar
    33     1    28    1
    34     1    29    1
    35     2    30    1
    36     3    31    1
    37    10    32    1
    38    11    33    1
    39    12    34    1
    40    15    35    1
    41    15    36    1
    42    17    37    1
    43    18    38    1
    44    20    39    1
    45    21    40    1
    46    22    41    1
    47    24    42    1
    48    25    43    1
    49    26    44    1
