@<TRIPOS>MOLECULE
*****
 41 46 0 0 0
SMALL
GASTEIGER

@<TRIPOS>ATOM
      1 SI         -1.6199    1.7039    2.4355 Si      1  UNL1        0.0000
      2 C          -3.4856    1.9817    2.7250 C.2     1  UNL1        0.0000
      3 C          -4.2243    1.4652    1.7188 C.2     1  UNL1        0.0000
      4 C          -3.4726    0.8269    0.6750 C.ar    1  UNL1        0.0000
      5 C          -2.0565    0.8215    0.8260 C.ar    1  UNL1        0.0000
      6 C          -1.3646    0.2296   -0.1896 C.ar    1  UNL1        0.0000
      7 S          -2.4883   -0.3442   -1.3695 S.2     1  UNL1        0.0000
      8 C          -3.8738    0.2157   -0.4909 C.ar    1  UNL1        0.0000
      9 C          -5.2108   -0.0038   -0.9798 C.ar    1  UNL1        0.0000
     10 C          -6.2675   -0.5591   -0.2822 C.ar    1  UNL1        0.0000
     11 C          -7.4638   -0.6206   -1.0556 C.ar    1  UNL1        0.0000
     12 C          -7.2843   -0.1064   -2.3195 C.ar    1  UNL1        0.0000
     13 S          -5.6848    0.4445   -2.5665 S.2     1  UNL1        0.0000
     14 C           0.0658    0.0218   -0.3818 C.ar    1  UNL1        0.0000
     15 C           0.8190   -0.7047    0.5410 C.ar    1  UNL1        0.0000
     16 C           2.1900   -0.8745    0.3392 C.ar    1  UNL1        0.0000
     17 C           2.7838   -0.3091   -0.7856 C.ar    1  UNL1        0.0000
     18 N           2.0744    0.4008   -1.6953 N.ar    1  UNL1        0.0000
     19 C           0.7442    0.5457   -1.4774 C.ar    1  UNL1        0.0000
     20 C           4.2167   -0.4387   -1.0478 C.ar    1  UNL1        0.0000
     21 S           4.8389   -0.4572   -2.6840 S.2     1  UNL1        0.0000
     22 C           6.4892   -0.6508   -2.1885 C.ar    1  UNL1        0.0000
     23 C           6.5120   -0.6912   -0.8426 C.ar    1  UNL1        0.0000
     24 N           7.6143   -0.8273   -0.0506 N.ar    1  UNL1        0.0000
     25 C           7.0411   -0.7926    1.2184 C.ar    1  UNL1        0.0000
     26 C           5.6397   -0.6383    1.1507 C.ar    1  UNL1        0.0000
     27 C           5.2857   -0.5771   -0.2257 C.ar    1  UNL1        0.0000
     28 H          -1.0481    0.8026    3.4675 H       1  UNL1        0.0000
     29 H          -0.9134    2.9948    2.2499 H       1  UNL1        0.0000
     30 H          -3.8397    2.5061    3.5979 H       1  UNL1        0.0000
     31 H          -5.3057    1.5362    1.6893 H       1  UNL1        0.0000
     32 H          -6.1854   -0.9165    0.7374 H       1  UNL1        0.0000
     33 H          -8.4053   -1.0234   -0.7031 H       1  UNL1        0.0000
     34 H          -8.0140   -0.0271   -3.1136 H       1  UNL1        0.0000
     35 H           0.3470   -1.1576    1.4092 H       1  UNL1        0.0000
     36 H           2.7699   -1.4566    1.0469 H       1  UNL1        0.0000
     37 H           0.2262    1.1265   -2.2368 H       1  UNL1        0.0000
     38 H           7.3031   -0.7167   -2.8962 H       1  UNL1        0.0000
     39 H           8.5809   -0.9207   -0.3378 H       1  UNL1        0.0000
     40 H           7.6841   -0.8746    2.0855 H       1  UNL1        0.0000
     41 H           4.9826   -0.5722    2.0074 H       1  UNL1        0.0000
@<TRIPOS>BOND
     1     1     2    1
     2     2     3    2
     3     3     4    1
     4     4     5   ar
     5     5     6   ar
     6     6     7   ar
     7     7     8   ar
     8     8     9    1
     9     9    10   ar
    10    10    11   ar
    11    11    12   ar
    12    12    13   ar
    13     6    14    1
    14    14    15   ar
    15    15    16   ar
    16    16    17   ar
    17    17    18   ar
    18    18    19   ar
    19    17    20    1
    20    20    21   ar
    21    21    22   ar
    22    22    23   ar
    23    23    24   ar
    24    24    25   ar
    25    25    26   ar
    26    26    27   ar
    27     5     1    1
    28    13     9   ar
    29    19    14   ar
    30    27    20   ar
    31     8     4   ar
    32    27    23   ar
    33     1    28    1
    34     1    29    1
    35     2    30    1
    36     3    31    1
    37    10    32    1
    38    11    33    1
    39    12    34    1
    40    15    35    1
    41    16    36    1
    42    19    37    1
    43    22    38    1
    44    24    39    1
    45    25    40    1
    46    26    41    1
