@<TRIPOS>MOLECULE
*****
 46 52 0 0 0
SMALL
GASTEIGER

@<TRIPOS>ATOM
      1 SI         -3.4027   -2.4614    1.1845 Si      1  UNL1        0.0000
      2 C          -1.7798   -3.2029    1.8764 C.2     1  UNL1        0.0000
      3 C          -0.7043   -2.4766    1.4976 C.2     1  UNL1        0.0000
      4 C          -0.9992   -1.3409    0.6716 C.ar    1  UNL1        0.0000
      5 C          -2.3682   -1.1144    0.3632 C.ar    1  UNL1        0.0000
      6 C          -2.6135   -0.0283   -0.4248 C.ar    1  UNL1        0.0000
      7 S          -1.1147    0.7273   -0.8280 S.2     1  UNL1        0.0000
      8 C          -0.1781   -0.4040    0.0910 C.ar    1  UNL1        0.0000
      9 C           1.2623   -0.2517    0.1351 C.ar    1  UNL1        0.0000
     10 C           2.1083   -0.4894   -0.9440 C.ar    1  UNL1        0.0000
     11 N           3.4721   -0.3659   -0.9664 N.ar    1  UNL1        0.0000
     12 C           4.1829    0.0660    0.1413 C.ar    1  UNL1        0.0000
     13 C           5.6395    0.1886    0.0296 C.ar    1  UNL1        0.0000
     14 C           6.3734   -0.6454   -0.8200 C.ar    1  UNL1        0.0000
     15 C           7.7566   -0.4943   -0.9059 C.ar    1  UNL1        0.0000
     16 C           8.3794    0.4919   -0.1517 C.ar    1  UNL1        0.0000
     17 C           7.5885    1.2909    0.6564 C.ar    1  UNL1        0.0000
     18 N           6.2471    1.1629    0.7582 N.ar    1  UNL1        0.0000
     19 C           3.4362    0.3423    1.3250 C.ar    1  UNL1        0.0000
     20 N           3.8889    0.7318    2.5342 N.ar    1  UNL1        0.0000
     21 S           2.5786    0.9097    3.5230 S.2     1  UNL1        0.0000
     22 N           1.3571    0.4941    2.4887 N.ar    1  UNL1        0.0000
     23 C           1.9289    0.1771    1.3089 C.ar    1  UNL1        0.0000
     24 C          -3.8526    0.5221   -0.9235 C.ar    1  UNL1        0.0000
     25 C          -4.2924    0.4578   -2.2688 C.ar    1  UNL1        0.0000
     26 C          -5.5463    1.0003   -2.7301 C.ar    1  UNL1        0.0000
     27 C          -6.4860    1.6600   -1.8993 C.ar    1  UNL1        0.0000
     28 C          -6.0214    1.7164   -0.5917 C.ar    1  UNL1        0.0000
     29 C          -6.6388    2.2984    0.4819 C.ar    1  UNL1        0.0000
     30 O          -5.8523    2.1524    1.5940 O.2     1  UNL1        0.0000
     31 C          -4.7233    1.4746    1.2181 C.ar    1  UNL1        0.0000
     32 C          -4.7848    1.1833   -0.1219 C.ar    1  UNL1        0.0000
     33 H          -4.0404   -3.3998    0.2248 H       1  UNL1        0.0000
     34 H          -4.2694   -1.9772    2.2881 H       1  UNL1        0.0000
     35 H          -1.7948   -4.0887    2.4928 H       1  UNL1        0.0000
     36 H           0.3078   -2.7255    1.7958 H       1  UNL1        0.0000
     37 H           1.6891   -0.8117   -1.8976 H       1  UNL1        0.0000
     38 H           5.8736   -1.4111   -1.4088 H       1  UNL1        0.0000
     39 H           8.3383   -1.1426   -1.5574 H       1  UNL1        0.0000
     40 H           9.4530    0.6372   -0.1937 H       1  UNL1        0.0000
     41 H           8.0241    2.0806    1.2646 H       1  UNL1        0.0000
     42 H          -3.6505   -0.0273   -3.0070 H       1  UNL1        0.0000
     43 H          -5.7818    0.8973   -3.7916 H       1  UNL1        0.0000
     44 H          -7.4203    2.0665   -2.2599 H       1  UNL1        0.0000
     45 H          -7.5681    2.8280    0.6357 H       1  UNL1        0.0000
     46 H          -4.0020    1.3013    2.0056 H       1  UNL1        0.0000
@<TRIPOS>BOND
     1     1     2    1
     2     2     3    2
     3     3     4    1
     4     4     5   ar
     5     5     6   ar
     6     6     7   ar
     7     7     8   ar
     8     8     9    1
     9     9    10   ar
    10    10    11   ar
    11    11    12   ar
    12    12    13    1
    13    13    14   ar
    14    14    15   ar
    15    15    16   ar
    16    16    17   ar
    17    17    18   ar
    18    12    19   ar
    19    19    20   ar
    20    20    21   ar
    21    21    22   ar
    22    22    23   ar
    23     6    24    1
    24    24    25   ar
    25    25    26   ar
    26    26    27   ar
    27    27    28   ar
    28    28    29   ar
    29    29    30   ar
    30    30    31   ar
    31    31    32   ar
    32     5     1    1
    33    23     9   ar
    34    32    24   ar
    35     8     4   ar
    36    18    13   ar
    37    23    19   ar
    38    32    28   ar
    39     1    33    1
    40     1    34    1
    41     2    35    1
    42     3    36    1
    43    10    37    1
    44    14    38    1
    45    15    39    1
    46    16    40    1
    47    17    41    1
    48    25    42    1
    49    26    43    1
    50    27    44    1
    51    29    45    1
    52    31    46    1
