@<TRIPOS>MOLECULE
*****
 44 50 0 0 0
SMALL
GASTEIGER

@<TRIPOS>ATOM
      1 SI         -2.4746   -1.5112    2.8910 Si      1  UNL1        0.0000
      2 C          -0.8248   -2.4540    3.1517 C.2     1  UNL1        0.0000
      3 C           0.1036   -2.0896    2.2415 C.2     1  UNL1        0.0000
      4 C          -0.3292   -1.0981    1.2978 C.ar    1  UNL1        0.0000
      5 C          -1.6657   -0.6270    1.4372 C.ar    1  UNL1        0.0000
      6 C          -2.0417    0.3343    0.5477 C.ar    1  UNL1        0.0000
      7 S          -0.7132    0.6756   -0.4995 S.2     1  UNL1        0.0000
      8 C           0.3294   -0.4781    0.2630 C.ar    1  UNL1        0.0000
      9 C           1.6618   -0.6966   -0.2182 C.ar    1  UNL1        0.0000
     10 C           2.2139   -1.8746   -0.6808 C.ar    1  UNL1        0.0000
     11 N           3.5224   -1.7923   -1.1234 N.ar    1  UNL1        0.0000
     12 C           3.9797   -0.5680   -0.9482 C.ar    1  UNL1        0.0000
     13 S           2.8321    0.5497   -0.3116 S.2     1  UNL1        0.0000
     14 C           5.2978   -0.1330   -1.3747 C.ar    1  UNL1        0.0000
     15 C           5.8878   -0.5787   -2.5621 C.ar    1  UNL1        0.0000
     16 N           7.1100   -0.2178   -3.0814 N.ar    1  UNL1        0.0000
     17 C           7.9135    0.6614   -2.4219 C.ar    1  UNL1        0.0000
     18 C           7.4676    1.1657   -1.1849 C.ar    1  UNL1        0.0000
     19 N           8.1235    2.0281   -0.3959 N.ar    1  UNL1        0.0000
     20 S           7.1660    2.2664    0.9404 S.2     1  UNL1        0.0000
     21 N           5.8741    1.3032    0.5679 N.ar    1  UNL1        0.0000
     22 C           6.1217    0.7508   -0.6371 C.ar    1  UNL1        0.0000
     23 C          -3.2867    1.0530    0.3865 C.ar    1  UNL1        0.0000
     24 C          -3.4520    2.4423    0.6109 C.ar    1  UNL1        0.0000
     25 C          -4.7035    3.1366    0.4615 C.ar    1  UNL1        0.0000
     26 C          -5.9150    2.5183    0.0744 C.ar    1  UNL1        0.0000
     27 C          -5.7248    1.1601   -0.1432 C.ar    1  UNL1        0.0000
     28 C          -6.6841    0.2681   -0.5434 C.ar    1  UNL1        0.0000
     29 N          -6.0667   -0.9599   -0.6568 N.ar    1  UNL1        0.0000
     30 C          -4.7295   -0.8544   -0.3357 C.ar    1  UNL1        0.0000
     31 C          -4.4911    0.4565    0.0004 C.ar    1  UNL1        0.0000
     32 H          -2.7661   -0.6432    4.0586 H       1  UNL1        0.0000
     33 H          -3.5444   -2.4659    2.5079 H       1  UNL1        0.0000
     34 H          -0.7178   -3.1655    3.9552 H       1  UNL1        0.0000
     35 H           1.1090   -2.4980    2.2342 H       1  UNL1        0.0000
     36 H           1.6973   -2.8239   -0.7352 H       1  UNL1        0.0000
     37 H           5.3498   -1.2958   -3.1885 H       1  UNL1        0.0000
     38 H           8.8607    0.9222   -2.8757 H       1  UNL1        0.0000
     39 H          -2.5851    3.0280    0.9177 H       1  UNL1        0.0000
     40 H          -4.7136    4.2094    0.6574 H       1  UNL1        0.0000
     41 H          -6.8468    3.0510   -0.0392 H       1  UNL1        0.0000
     42 H          -7.7355    0.3803   -0.7656 H       1  UNL1        0.0000
     43 H          -6.5247   -1.8140   -0.9465 H       1  UNL1        0.0000
     44 H          -4.0852   -1.7215   -0.3906 H       1  UNL1        0.0000
@<TRIPOS>BOND
     1     1     2    1
     2     2     3    2
     3     3     4    1
     4     4     5   ar
     5     5     6   ar
     6     6     7   ar
     7     7     8   ar
     8     8     9    1
     9     9    10   ar
    10    10    11   ar
    11    11    12   ar
    12    12    13   ar
    13    12    14    1
    14    14    15   ar
    15    15    16   ar
    16    16    17   ar
    17    17    18   ar
    18    18    19   ar
    19    19    20   ar
    20    20    21   ar
    21    21    22   ar
    22     6    23    1
    23    23    24   ar
    24    24    25   ar
    25    25    26   ar
    26    26    27   ar
    27    27    28   ar
    28    28    29   ar
    29    29    30   ar
    30    30    31   ar
    31     5     1    1
    32    13     9   ar
    33    22    14   ar
    34    31    23   ar
    35     8     4   ar
    36    22    18   ar
    37    31    27   ar
    38     1    32    1
    39     1    33    1
    40     2    34    1
    41     3    35    1
    42    10    36    1
    43    15    37    1
    44    17    38    1
    45    24    39    1
    46    25    40    1
    47    26    41    1
    48    28    42    1
    49    29    43    1
    50    30    44    1
