@<TRIPOS>MOLECULE
*****
 42 47 0 0 0
SMALL
GASTEIGER

@<TRIPOS>ATOM
      1 SI          1.3009   -3.5307    1.1969 Si      1  UNL1        0.0000
      2 C           3.2015   -3.3869    1.3185 C.2     1  UNL1        0.0000
      3 C           3.6402   -2.2221    0.7953 C.2     1  UNL1        0.0000
      4 C           2.6137   -1.3684    0.2695 C.ar    1  UNL1        0.0000
      5 C           1.2724   -1.8442    0.3520 C.ar    1  UNL1        0.0000
      6 C           0.3239   -0.9993   -0.1468 C.ar    1  UNL1        0.0000
      7 S           1.1104    0.4279   -0.7364 S.2     1  UNL1        0.0000
      8 C           2.6899   -0.1233   -0.3051 C.ar    1  UNL1        0.0000
      9 C           3.8443    0.7010   -0.6070 C.ar    1  UNL1        0.0000
     10 C           4.8472    0.3300   -1.5074 C.ar    1  UNL1        0.0000
     11 N           5.9777    1.0377   -1.8378 N.ar    1  UNL1        0.0000
     12 C           6.2286    2.2535   -1.2686 C.ar    1  UNL1        0.0000
     13 C           5.3031    2.7544   -0.3306 C.ar    1  UNL1        0.0000
     14 N           5.3883    3.9195    0.3318 N.ar    1  UNL1        0.0000
     15 S           4.0491    4.0002    1.3091 S.2     1  UNL1        0.0000
     16 N           3.3060    2.5661    0.9365 N.ar    1  UNL1        0.0000
     17 C           4.0722    1.9529    0.0149 C.ar    1  UNL1        0.0000
     18 C          -1.1010   -1.1479   -0.2285 C.ar    1  UNL1        0.0000
     19 C          -1.8877   -2.2757   -0.3451 C.ar    1  UNL1        0.0000
     20 C          -3.2421   -1.8578   -0.3722 C.ar    1  UNL1        0.0000
     21 C          -3.2713   -0.4766   -0.2876 C.ar    1  UNL1        0.0000
     22 N          -1.9575   -0.0709   -0.1991 N.ar    1  UNL1        0.0000
     23 C          -4.3991    0.4569   -0.2676 C.ar    1  UNL1        0.0000
     24 C          -5.6098    0.0901    0.3357 C.ar    1  UNL1        0.0000
     25 C          -6.6915    0.9744    0.3636 C.ar    1  UNL1        0.0000
     26 C          -6.5764    2.2358   -0.2156 C.ar    1  UNL1        0.0000
     27 C          -5.3815    2.6125   -0.8242 C.ar    1  UNL1        0.0000
     28 C          -4.2991    1.7282   -0.8507 C.ar    1  UNL1        0.0000
     29 H           0.6950   -3.5533    2.5513 H       1  UNL1        0.0000
     30 H           0.9165   -4.6583    0.3108 H       1  UNL1        0.0000
     31 H           3.7891   -4.1702    1.7696 H       1  UNL1        0.0000
     32 H           4.6883   -1.9449    0.7805 H       1  UNL1        0.0000
     33 H           4.7673   -0.6200   -2.0376 H       1  UNL1        0.0000
     34 H           7.1306    2.7736   -1.5627 H       1  UNL1        0.0000
     35 H          -1.5404   -3.2969   -0.4204 H       1  UNL1        0.0000
     36 H          -4.1078   -2.5014   -0.4635 H       1  UNL1        0.0000
     37 H          -1.6536    0.8875   -0.0986 H       1  UNL1        0.0000
     38 H          -5.7183   -0.8863    0.8017 H       1  UNL1        0.0000
     39 H          -7.6223    0.6765    0.8390 H       1  UNL1        0.0000
     40 H          -7.4181    2.9230   -0.1957 H       1  UNL1        0.0000
     41 H          -5.2920    3.5930   -1.2846 H       1  UNL1        0.0000
     42 H          -3.3864    2.0403   -1.3516 H       1  UNL1        0.0000
@<TRIPOS>BOND
     1     1     2    1
     2     2     3    2
     3     3     4    1
     4     4     5   ar
     5     5     6   ar
     6     6     7   ar
     7     7     8   ar
     8     8     9    1
     9     9    10   ar
    10    10    11   ar
    11    11    12   ar
    12    12    13   ar
    13    13    14   ar
    14    14    15   ar
    15    15    16   ar
    16    16    17   ar
    17     6    18    1
    18    18    19   ar
    19    19    20   ar
    20    20    21   ar
    21    21    22   ar
    22    21    23    1
    23    23    24   ar
    24    24    25   ar
    25    25    26   ar
    26    26    27   ar
    27    27    28   ar
    28     5     1    1
    29    17     9   ar
    30    22    18   ar
    31    28    23   ar
    32     8     4   ar
    33    17    13   ar
    34     1    29    1
    35     1    30    1
    36     2    31    1
    37     3    32    1
    38    10    33    1
    39    12    34    1
    40    19    35    1
    41    20    36    1
    42    22    37    1
    43    24    38    1
    44    25    39    1
    45    26    40    1
    46    27    41    1
    47    28    42    1
