@<TRIPOS>MOLECULE
*****
 35 40 0 0 0
SMALL
GASTEIGER

@<TRIPOS>ATOM
      1 SI          1.0771   -1.7294   -2.2645 Si      1  UNL1        0.0000
      2 C          -0.7368   -2.2914   -2.4747 C.2     1  UNL1        0.0000
      3 C          -1.5341   -1.7450   -1.5315 C.2     1  UNL1        0.0000
      4 C          -0.8683   -0.8902   -0.5905 C.ar    1  UNL1        0.0000
      5 C           0.5357   -0.7234   -0.7616 C.ar    1  UNL1        0.0000
      6 C           1.1473    0.0684    0.1663 C.ar    1  UNL1        0.0000
      7 S          -0.0464    0.6381    1.2809 S.2     1  UNL1        0.0000
      8 C          -1.3473   -0.1925    0.4929 C.ar    1  UNL1        0.0000
      9 C          -2.6905   -0.0686    1.0328 C.ar    1  UNL1        0.0000
     10 C          -3.0519   -0.4114    2.3406 C.ar    1  UNL1        0.0000
     11 N          -4.2966   -0.3259    2.9178 N.ar    1  UNL1        0.0000
     12 C          -5.3624    0.1416    2.2045 C.ar    1  UNL1        0.0000
     13 C          -5.1498    0.5293    0.8663 C.ar    1  UNL1        0.0000
     14 N          -6.0742    1.0085    0.0182 N.ar    1  UNL1        0.0000
     15 S          -5.2853    1.3113   -1.4102 S.2     1  UNL1        0.0000
     16 N          -3.7466    0.8368   -1.0203 N.ar    1  UNL1        0.0000
     17 C          -3.7719    0.4212    0.2598 C.ar    1  UNL1        0.0000
     18 C           2.5377    0.4627    0.3417 C.ar    1  UNL1        0.0000
     19 C           3.2741    0.1796    1.5146 C.ar    1  UNL1        0.0000
     20 C           4.6257    0.5565    1.6957 C.ar    1  UNL1        0.0000
     21 C           5.3635    1.2499    0.7224 C.ar    1  UNL1        0.0000
     22 C           4.6806    1.5635   -0.4773 C.ar    1  UNL1        0.0000
     23 N           5.2076    2.2165   -1.5242 N.ar    1  UNL1        0.0000
     24 S           4.0021    2.3367   -2.6581 S.2     1  UNL1        0.0000
     25 N           2.7652    1.5524   -1.8824 N.ar    1  UNL1        0.0000
     26 C           3.2351    1.1653   -0.6826 C.ar    1  UNL1        0.0000
     27 H           1.5107   -0.9465   -3.4474 H       1  UNL1        0.0000
     28 H           1.9425   -2.8871   -1.9231 H       1  UNL1        0.0000
     29 H          -1.0230   -2.9522   -3.2767 H       1  UNL1        0.0000
     30 H          -2.6011   -1.9307   -1.4877 H       1  UNL1        0.0000
     31 H          -2.2960   -0.8048    3.0214 H       1  UNL1        0.0000
     32 H          -6.3217    0.1924    2.7022 H       1  UNL1        0.0000
     33 H           2.7840   -0.3614    2.3257 H       1  UNL1        0.0000
     34 H           5.1164    0.2967    2.6344 H       1  UNL1        0.0000
     35 H           6.3983    1.5331    0.8745 H       1  UNL1        0.0000
@<TRIPOS>BOND
     1     1     2    1
     2     2     3    2
     3     3     4    1
     4     4     5   ar
     5     5     6   ar
     6     6     7   ar
     7     7     8   ar
     8     8     9    1
     9     9    10   ar
    10    10    11   ar
    11    11    12   ar
    12    12    13   ar
    13    13    14   ar
    14    14    15   ar
    15    15    16   ar
    16    16    17   ar
    17     6    18    1
    18    18    19   ar
    19    19    20   ar
    20    20    21   ar
    21    21    22   ar
    22    22    23   ar
    23    23    24   ar
    24    24    25   ar
    25    25    26   ar
    26     5     1    1
    27    17     9   ar
    28    26    18   ar
    29     8     4   ar
    30    17    13   ar
    31    26    22   ar
    32     1    27    1
    33     1    28    1
    34     2    29    1
    35     3    30    1
    36    10    31    1
    37    12    32    1
    38    19    33    1
    39    20    34    1
    40    21    35    1
