@<TRIPOS>MOLECULE
*****
 46 52 0 0 0
SMALL
GASTEIGER

@<TRIPOS>ATOM
      1 SI          1.9564    1.7060    2.3782 Si      1  UNL1        0.0000
      2 C           3.8355    1.9293    2.6564 C.2     1  UNL1        0.0000
      3 C           4.5580    1.1520    1.8200 C.2     1  UNL1        0.0000
      4 C           3.7874    0.3431    0.9176 C.ar    1  UNL1        0.0000
      5 C           2.3729    0.4542    1.0329 C.ar    1  UNL1        0.0000
      6 C           1.6559   -0.3386    0.1886 C.ar    1  UNL1        0.0000
      7 S           2.7422   -1.2659   -0.7750 S.2     1  UNL1        0.0000
      8 C           4.1578   -0.5590   -0.0555 C.ar    1  UNL1        0.0000
      9 C           5.4652   -0.9518   -0.5065 C.ar    1  UNL1        0.0000
     10 C           5.9406   -2.2291   -0.7479 C.ar    1  UNL1        0.0000
     11 N           7.2470   -2.3205   -1.1949 N.ar    1  UNL1        0.0000
     12 C           7.7446   -1.1096   -1.3052 C.ar    1  UNL1        0.0000
     13 S           6.7014    0.1817   -0.8819 S.2     1  UNL1        0.0000
     14 C           0.2094   -0.4966    0.0255 C.ar    1  UNL1        0.0000
     15 C          -0.4071   -1.5376    0.7277 C.ar    1  UNL1        0.0000
     16 C          -1.7817   -1.7235    0.6465 C.ar    1  UNL1        0.0000
     17 C          -2.5862   -0.8744   -0.1339 C.ar    1  UNL1        0.0000
     18 C          -4.0276   -1.1300   -0.1703 C.ar    1  UNL1        0.0000
     19 N          -4.6092   -1.5023   -1.3593 N.ar    1  UNL1        0.0000
     20 C          -5.9496   -1.7690   -1.4466 C.ar    1  UNL1        0.0000
     21 C          -6.8879   -1.7127   -0.4220 C.ar    1  UNL1        0.0000
     22 C          -6.3399   -1.3374    0.8185 C.ar    1  UNL1        0.0000
     23 N          -7.0282   -1.2098    1.9641 N.ar    1  UNL1        0.0000
     24 S          -5.9330   -0.7505    3.1236 S.2     1  UNL1        0.0000
     25 N          -4.5377   -0.6984    2.2287 N.ar    1  UNL1        0.0000
     26 C          -4.8720   -1.0359    0.9688 C.ar    1  UNL1        0.0000
     27 C          -1.9750    0.1930   -0.8590 C.ar    1  UNL1        0.0000
     28 C          -2.7194    1.0957   -1.6593 C.ar    1  UNL1        0.0000
     29 C          -2.1192    2.1412   -2.3617 C.ar    1  UNL1        0.0000
     30 C          -0.7492    2.3187   -2.2868 C.ar    1  UNL1        0.0000
     31 C           0.0148    1.4515   -1.5076 C.ar    1  UNL1        0.0000
     32 C          -0.5651    0.3832   -0.7784 C.ar    1  UNL1        0.0000
     33 H           1.3212    1.1179    3.5836 H       1  UNL1        0.0000
     34 H           1.3571    2.9675    1.8769 H       1  UNL1        0.0000
     35 H           4.2050    2.6043    3.4114 H       1  UNL1        0.0000
     36 H           5.6413    1.1317    1.8371 H       1  UNL1        0.0000
     37 H           5.3733   -3.1417   -0.6071 H       1  UNL1        0.0000
     38 H           8.7563   -0.9307   -1.6451 H       1  UNL1        0.0000
     39 H           0.1843   -2.2102    1.3458 H       1  UNL1        0.0000
     40 H          -2.2301   -2.5458    1.2020 H       1  UNL1        0.0000
     41 H          -6.2703   -2.0529   -2.4493 H       1  UNL1        0.0000
     42 H          -7.9355   -1.9367   -0.5619 H       1  UNL1        0.0000
     43 H          -3.7983    0.9894   -1.7547 H       1  UNL1        0.0000
     44 H          -2.7261    2.8074   -2.9687 H       1  UNL1        0.0000
     45 H          -0.2692    3.1252   -2.8342 H       1  UNL1        0.0000
     46 H           1.0899    1.6200   -1.4811 H       1  UNL1        0.0000
@<TRIPOS>BOND
     1     1     2    1
     2     2     3    2
     3     3     4    1
     4     4     5   ar
     5     5     6   ar
     6     6     7   ar
     7     7     8   ar
     8     8     9    1
     9     9    10   ar
    10    10    11   ar
    11    11    12   ar
    12    12    13   ar
    13     6    14    1
    14    14    15   ar
    15    15    16   ar
    16    16    17   ar
    17    17    18    1
    18    18    19   ar
    19    19    20   ar
    20    20    21   ar
    21    21    22   ar
    22    22    23   ar
    23    23    24   ar
    24    24    25   ar
    25    25    26   ar
    26    17    27   ar
    27    27    28   ar
    28    28    29   ar
    29    29    30   ar
    30    30    31   ar
    31    31    32   ar
    32     5     1    1
    33    13     9   ar
    34    32    14   ar
    35     8     4   ar
    36    26    18   ar
    37    32    27   ar
    38    26    22   ar
    39     1    33    1
    40     1    34    1
    41     2    35    1
    42     3    36    1
    43    10    37    1
    44    12    38    1
    45    15    39    1
    46    16    40    1
    47    20    41    1
    48    21    42    1
    49    28    43    1
    50    29    44    1
    51    30    45    1
    52    31    46    1
