@<TRIPOS>MOLECULE
*****
 45 52 0 0 0
SMALL
GASTEIGER

@<TRIPOS>ATOM
      1 SI          2.2396    0.7097    0.7107 Si      1  UNL1        0.0000
      2 C           3.0108   -0.6917   -0.3693 C.2     1  UNL1        0.0000
      3 C           2.0293   -1.3921   -0.9904 C.2     1  UNL1        0.0000
      4 C           0.7326   -0.8993   -0.6716 C.ar    1  UNL1        0.0000
      5 O          -0.4906   -1.3219   -1.0839 O.2     1  UNL1        0.0000
      6 C          -1.4242   -0.5116   -0.4881 C.ar    1  UNL1        0.0000
      7 C          -0.8143    0.4508    0.3216 C.ar    1  UNL1        0.0000
      8 C           0.5499    0.1726    0.1789 C.ar    1  UNL1        0.0000
      9 C          -1.6492    1.3731    1.0136 C.ar    1  UNL1        0.0000
     10 C          -1.0551    2.3554    1.8385 C.ar    1  UNL1        0.0000
     11 C          -1.8339    3.2760    2.5326 C.ar    1  UNL1        0.0000
     12 C          -3.2131    3.2310    2.4148 C.ar    1  UNL1        0.0000
     13 C          -3.8169    2.2652    1.6024 C.ar    1  UNL1        0.0000
     14 C          -3.0731    1.3037    0.8735 C.ar    1  UNL1        0.0000
     15 C          -3.6804    0.3062    0.0355 C.ar    1  UNL1        0.0000
     16 C          -5.1304    0.1719   -0.1585 C.ar    1  UNL1        0.0000
     17 C          -5.8039   -0.7842   -0.9671 C.ar    1  UNL1        0.0000
     18 C          -4.8865   -1.6150   -1.5806 C.ar    1  UNL1        0.0000
     19 C          -5.1601   -2.6520   -2.4306 C.ar    1  UNL1        0.0000
     20 O          -3.9873   -3.2326   -2.8278 O.2     1  UNL1        0.0000
     21 C          -2.9662   -2.5521   -2.2201 C.ar    1  UNL1        0.0000
     22 C          -3.4746   -1.5441   -1.4398 C.ar    1  UNL1        0.0000
     23 C          -2.8049   -0.6053   -0.6453 C.ar    1  UNL1        0.0000
     24 C           4.4119   -0.9230   -0.4715 C.ar    1  UNL1        0.0000
     25 S           5.0477   -2.2294   -1.4880 S.2     1  UNL1        0.0000
     26 C           6.6988   -1.9031   -1.1249 C.ar    1  UNL1        0.0000
     27 C           6.7270   -0.8606   -0.2817 C.ar    1  UNL1        0.0000
     28 O           7.8492   -0.2966    0.2413 O.2     1  UNL1        0.0000
     29 C           7.2740    0.6951    1.0074 C.ar    1  UNL1        0.0000
     30 C           5.8753    0.7247    0.9471 C.ar    1  UNL1        0.0000
     31 C           5.5099   -0.3270    0.0758 C.ar    1  UNL1        0.0000
     32 H           2.6364    2.0549    0.2210 H       1  UNL1        0.0000
     33 H           2.5217    0.5018    2.1543 H       1  UNL1        0.0000
     34 H           2.1553   -2.2330   -1.6585 H       1  UNL1        0.0000
     35 H           0.0207    2.4205    1.9547 H       1  UNL1        0.0000
     36 H          -1.3632    4.0256    3.1632 H       1  UNL1        0.0000
     37 H          -3.8294    3.9466    2.9537 H       1  UNL1        0.0000
     38 H          -4.9017    2.2882    1.5567 H       1  UNL1        0.0000
     39 H          -5.7911    0.8663    0.3605 H       1  UNL1        0.0000
     40 H          -6.8785   -0.8310   -1.0684 H       1  UNL1        0.0000
     41 H          -6.0591   -3.0920   -2.8377 H       1  UNL1        0.0000
     42 H          -1.9733   -2.9118   -2.4505 H       1  UNL1        0.0000
     43 H           7.5292   -2.4640   -1.5277 H       1  UNL1        0.0000
     44 H           7.9891    1.3057    1.5435 H       1  UNL1        0.0000
     45 H           5.2526    1.4284    1.4780 H       1  UNL1        0.0000
@<TRIPOS>BOND
     1     1     2    1
     2     2     3    2
     3     3     4    1
     4     4     5   ar
     5     5     6   ar
     6     6     7   ar
     7     7     8   ar
     8     7     9   ar
     9     9    10   ar
    10    10    11   ar
    11    11    12   ar
    12    12    13   ar
    13    13    14   ar
    14    14    15   ar
    15    15    16   ar
    16    16    17   ar
    17    17    18   ar
    18    18    19   ar
    19    19    20   ar
    20    20    21   ar
    21    21    22   ar
    22    22    23   ar
    23     2    24    1
    24    24    25   ar
    25    25    26   ar
    26    26    27   ar
    27    27    28   ar
    28    28    29   ar
    29    29    30   ar
    30    30    31   ar
    31     8     1    1
    32    14     9   ar
    33    23    15   ar
    34    31    24   ar
    35     8     4   ar
    36    22    18   ar
    37    31    27   ar
    38    23     6   ar
    39     1    32    1
    40     1    33    1
    41     3    34    1
    42    10    35    1
    43    11    36    1
    44    12    37    1
    45    13    38    1
    46    16    39    1
    47    17    40    1
    48    19    41    1
    49    21    42    1
    50    26    43    1
    51    29    44    1
    52    30    45    1
