@<TRIPOS>MOLECULE
*****
 39 44 0 0 0
SMALL
GASTEIGER

@<TRIPOS>ATOM
      1 SI          1.5330   -1.8939    2.3907 Si      1  UNL1        0.0000
      2 C           3.3556   -1.8266    2.9693 C.2     1  UNL1        0.0000
      3 C           4.0487   -0.8704    2.3139 C.2     1  UNL1        0.0000
      4 C           3.2919   -0.1178    1.3536 C.ar    1  UNL1        0.0000
      5 C           1.9223   -0.4755    1.2051 C.ar    1  UNL1        0.0000
      6 C           1.2096    0.2501    0.2901 C.ar    1  UNL1        0.0000
      7 S           2.2909    1.3780   -0.4519 S.2     1  UNL1        0.0000
      8 C           3.6518    0.9061    0.5089 C.ar    1  UNL1        0.0000
      9 C           4.9232    1.5654    0.3830 C.ar    1  UNL1        0.0000
     10 C           5.7450    2.0251    1.3967 C.ar    1  UNL1        0.0000
     11 N           6.9354    2.6084    1.0019 N.ar    1  UNL1        0.0000
     12 C           7.0012    2.5933   -0.3105 C.ar    1  UNL1        0.0000
     13 S           5.6728    1.8869   -1.1303 S.2     1  UNL1        0.0000
     14 C          -0.1853    0.1364   -0.1189 C.ar    1  UNL1        0.0000
     15 N          -0.7393   -1.1164   -0.0713 N.ar    1  UNL1        0.0000
     16 C          -2.0414   -1.3299   -0.4422 C.ar    1  UNL1        0.0000
     17 C          -2.9829   -0.3895   -0.8811 C.ar    1  UNL1        0.0000
     18 C          -4.3586   -0.7193   -1.2479 C.ar    1  UNL1        0.0000
     19 C          -4.9458   -0.2742   -2.4395 C.ar    1  UNL1        0.0000
     20 C          -6.2564   -0.6280   -2.7581 C.ar    1  UNL1        0.0000
     21 C          -6.9541   -1.4294   -1.8728 C.ar    1  UNL1        0.0000
     22 N          -6.4357   -1.8873   -0.7155 N.ar    1  UNL1        0.0000
     23 C          -5.1630   -1.5189   -0.4323 C.ar    1  UNL1        0.0000
     24 C          -2.4553    0.9302   -0.9150 C.ar    1  UNL1        0.0000
     25 N          -3.1210    2.0455   -1.2685 N.ar    1  UNL1        0.0000
     26 S          -2.0717    3.3143   -1.1124 S.2     1  UNL1        0.0000
     27 N          -0.7174    2.5249   -0.5907 N.ar    1  UNL1        0.0000
     28 C          -1.0172    1.2145   -0.5205 C.ar    1  UNL1        0.0000
     29 H           1.2580   -3.2013    1.7440 H       1  UNL1        0.0000
     30 H           0.6253   -1.5200    3.5048 H       1  UNL1        0.0000
     31 H           3.7215   -2.5084    3.7201 H       1  UNL1        0.0000
     32 H           5.1034   -0.6920    2.4902 H       1  UNL1        0.0000
     33 H           5.5206    1.9644    2.4551 H       1  UNL1        0.0000
     34 H           7.8453    3.0016   -0.8507 H       1  UNL1        0.0000
     35 H          -2.3245   -2.3825   -0.3790 H       1  UNL1        0.0000
     36 H          -4.3888    0.3525   -3.1331 H       1  UNL1        0.0000
     37 H          -6.7192   -0.2840   -3.6764 H       1  UNL1        0.0000
     38 H          -7.9773   -1.7320   -2.0764 H       1  UNL1        0.0000
     39 H          -4.8003   -1.9004    0.5197 H       1  UNL1        0.0000
@<TRIPOS>BOND
     1     1     2    1
     2     2     3    2
     3     3     4    1
     4     4     5   ar
     5     5     6   ar
     6     6     7   ar
     7     7     8   ar
     8     8     9    1
     9     9    10   ar
    10    10    11   ar
    11    11    12   ar
    12    12    13   ar
    13     6    14    1
    14    14    15   ar
    15    15    16   ar
    16    16    17   ar
    17    17    18    1
    18    18    19   ar
    19    19    20   ar
    20    20    21   ar
    21    21    22   ar
    22    22    23   ar
    23    17    24   ar
    24    24    25   ar
    25    25    26   ar
    26    26    27   ar
    27    27    28   ar
    28     5     1    1
    29    13     9   ar
    30    28    14   ar
    31     8     4   ar
    32    23    18   ar
    33    28    24   ar
    34     1    29    1
    35     1    30    1
    36     2    31    1
    37     3    32    1
    38    10    33    1
    39    12    34    1
    40    16    35    1
    41    19    36    1
    42    20    37    1
    43    21    38    1
    44    23    39    1
