@<TRIPOS>MOLECULE
*****
 33 37 0 0 0
SMALL
GASTEIGER

@<TRIPOS>ATOM
      1 SI          0.8543   -2.6802    0.1047 Si      1  UNL1        0.0000
      2 C           2.7249   -3.0121    0.0008 C.2     1  UNL1        0.0000
      3 C           3.4313   -1.8616    0.0040 C.2     1  UNL1        0.0000
      4 C           2.6453   -0.6617    0.0807 C.ar    1  UNL1        0.0000
      5 C           1.2287   -0.8281    0.1438 C.ar    1  UNL1        0.0000
      6 C           0.5084    0.3291    0.2528 C.ar    1  UNL1        0.0000
      7 S           1.6160    1.6619    0.2809 S.2     1  UNL1        0.0000
      8 C           3.0190    0.6612    0.1317 C.ar    1  UNL1        0.0000
      9 C           4.3385    1.2276    0.0580 C.ar    1  UNL1        0.0000
     10 C           5.3475    0.9158   -0.8359 C.ar    1  UNL1        0.0000
     11 N           6.5398    1.5977   -0.6742 N.ar    1  UNL1        0.0000
     12 C           6.4205    2.4287    0.3370 C.ar    1  UNL1        0.0000
     13 S           4.9080    2.4341    1.1419 S.2     1  UNL1        0.0000
     14 C          -0.9108    0.5666    0.3476 C.ar    1  UNL1        0.0000
     15 N          -1.4129    1.5458    1.0709 N.ar    1  UNL1        0.0000
     16 C          -2.7904    1.5494    0.9646 C.ar    1  UNL1        0.0000
     17 C          -3.3442    0.5745    0.1559 C.ar    1  UNL1        0.0000
     18 S          -2.0710   -0.3768   -0.4978 S.2     1  UNL1        0.0000
     19 C          -4.7475    0.3222   -0.1520 C.ar    1  UNL1        0.0000
     20 N          -5.6306    1.1496    0.4129 N.ar    1  UNL1        0.0000
     21 C          -6.8969    0.8832    0.1060 C.ar    1  UNL1        0.0000
     22 N          -7.3205   -0.1012   -0.6829 N.ar    1  UNL1        0.0000
     23 C          -6.3445   -0.8553   -1.1826 C.ar    1  UNL1        0.0000
     24 N          -5.0436   -0.7000   -0.9575 N.ar    1  UNL1        0.0000
     25 H           0.1720   -3.1268   -1.1342 H       1  UNL1        0.0000
     26 H           0.2871   -3.2039    1.3711 H       1  UNL1        0.0000
     27 H           3.1106   -4.0183   -0.0416 H       1  UNL1        0.0000
     28 H           4.5150   -1.8443   -0.0311 H       1  UNL1        0.0000
     29 H           5.2659    0.1928   -1.6388 H       1  UNL1        0.0000
     30 H           7.2290    3.0760    0.6508 H       1  UNL1        0.0000
     31 H          -3.3557    2.2988    1.5072 H       1  UNL1        0.0000
     32 H          -7.6551    1.5274    0.5387 H       1  UNL1        0.0000
     33 H          -6.6378   -1.6722   -1.8335 H       1  UNL1        0.0000
@<TRIPOS>BOND
     1     1     2    1
     2     2     3    2
     3     3     4    1
     4     4     5   ar
     5     5     6   ar
     6     6     7   ar
     7     7     8   ar
     8     8     9    1
     9     9    10   ar
    10    10    11   ar
    11    11    12   ar
    12    12    13   ar
    13     6    14    1
    14    14    15   ar
    15    15    16   ar
    16    16    17   ar
    17    17    18   ar
    18    17    19    1
    19    19    20   ar
    20    20    21   ar
    21    21    22   ar
    22    22    23   ar
    23    23    24   ar
    24     5     1    1
    25    13     9   ar
    26    18    14   ar
    27    24    19   ar
    28     8     4   ar
    29     1    25    1
    30     1    26    1
    31     2    27    1
    32     3    28    1
    33    10    29    1
    34    12    30    1
    35    16    31    1
    36    21    32    1
    37    23    33    1
