@<TRIPOS>MOLECULE
*****
 35 39 0 0 0
SMALL
GASTEIGER

@<TRIPOS>ATOM
      1 SI         -0.8000   -1.4801    2.6442 Si      1  UNL1        0.0000
      2 C          -2.6604   -1.6603    3.0172 C.2     1  UNL1        0.0000
      3 C          -3.4196   -1.1129    2.0433 C.2     1  UNL1        0.0000
      4 C          -2.6905   -0.5279    0.9522 C.ar    1  UNL1        0.0000
      5 C          -1.2685   -0.5915    1.0433 C.ar    1  UNL1        0.0000
      6 C          -0.5893    0.0039    0.0215 C.ar    1  UNL1        0.0000
      7 S          -1.7282    0.6663   -1.0929 S.2     1  UNL1        0.0000
      8 C          -3.1074    0.1217   -0.1890 C.ar    1  UNL1        0.0000
      9 C          -4.4326    0.3885   -0.6852 C.ar    1  UNL1        0.0000
     10 N          -4.7738    1.5510   -1.2063 N.ar    1  UNL1        0.0000
     11 C          -6.0898    1.5144   -1.6216 C.ar    1  UNL1        0.0000
     12 C          -6.7427    0.3188   -1.4222 C.ar    1  UNL1        0.0000
     13 S          -5.6750   -0.8046   -0.6930 S.2     1  UNL1        0.0000
     14 C           0.8403    0.1372   -0.2313 C.ar    1  UNL1        0.0000
     15 C           1.4576    1.3859   -0.3144 C.ar    1  UNL1        0.0000
     16 C           2.8341    1.4691   -0.5357 C.ar    1  UNL1        0.0000
     17 C           3.5712    0.2934   -0.6701 C.ar    1  UNL1        0.0000
     18 N           2.9916   -0.9320   -0.5881 N.ar    1  UNL1        0.0000
     19 C           1.6541   -0.9805   -0.3789 C.ar    1  UNL1        0.0000
     20 C           5.0298    0.2798   -0.8913 C.ar    1  UNL1        0.0000
     21 N           5.8726   -0.6024   -0.3816 N.ar    1  UNL1        0.0000
     22 C           7.1587   -0.3430   -0.8071 C.ar    1  UNL1        0.0000
     23 C           7.3008    0.7422   -1.6409 C.ar    1  UNL1        0.0000
     24 S           5.7731    1.4651   -1.9107 S.2     1  UNL1        0.0000
     25 H          -0.1400   -0.6078    3.6459 H       1  UNL1        0.0000
     26 H          -0.1717   -2.8047    2.4189 H       1  UNL1        0.0000
     27 H          -2.9997   -2.1412    3.9208 H       1  UNL1        0.0000
     28 H          -4.5022   -1.1040    2.0928 H       1  UNL1        0.0000
     29 H          -6.5270    2.3979   -2.0708 H       1  UNL1        0.0000
     30 H          -7.7621    0.0584   -1.6671 H       1  UNL1        0.0000
     31 H           0.8778    2.2989   -0.1978 H       1  UNL1        0.0000
     32 H           3.3083    2.4438   -0.5824 H       1  UNL1        0.0000
     33 H           1.2443   -1.9867   -0.3377 H       1  UNL1        0.0000
     34 H           7.9643   -0.9863   -0.4749 H       1  UNL1        0.0000
     35 H           8.2017    1.1295   -2.0939 H       1  UNL1        0.0000
@<TRIPOS>BOND
     1     1     2    1
     2     2     3    2
     3     3     4    1
     4     4     5   ar
     5     5     6   ar
     6     6     7   ar
     7     7     8   ar
     8     8     9    1
     9     9    10   ar
    10    10    11   ar
    11    11    12   ar
    12    12    13   ar
    13     6    14    1
    14    14    15   ar
    15    15    16   ar
    16    16    17   ar
    17    17    18   ar
    18    18    19   ar
    19    17    20    1
    20    20    21   ar
    21    21    22   ar
    22    22    23   ar
    23    23    24   ar
    24     5     1    1
    25    13     9   ar
    26    19    14   ar
    27    24    20   ar
    28     8     4   ar
    29     1    25    1
    30     1    26    1
    31     2    27    1
    32     3    28    1
    33    11    29    1
    34    12    30    1
    35    15    31    1
    36    16    32    1
    37    19    33    1
    38    22    34    1
    39    23    35    1
