@<TRIPOS>MOLECULE
*****
 45 51 0 0 0
SMALL
GASTEIGER

@<TRIPOS>ATOM
      1 SI          4.2599    0.3842    2.5796 Si      1  UNL1        0.0000
      2 C           2.5328    1.0103    3.0902 C.2     1  UNL1        0.0000
      3 C           1.6338    0.8463    2.0953 C.2     1  UNL1        0.0000
      4 C           2.1507    0.2473    0.8966 C.ar    1  UNL1        0.0000
      5 C           3.5355   -0.0901    0.9060 C.ar    1  UNL1        0.0000
      6 C           4.0129   -0.6275   -0.2528 C.ar    1  UNL1        0.0000
      7 S           2.7219   -0.7267   -1.3943 S.2     1  UNL1        0.0000
      8 C           1.5521   -0.0552   -0.3051 C.ar    1  UNL1        0.0000
      9 C           0.1875    0.1072   -0.7189 C.ar    1  UNL1        0.0000
     10 S          -1.1533   -0.4855    0.2259 S.2     1  UNL1        0.0000
     11 C          -2.3452    0.0761   -0.8940 C.ar    1  UNL1        0.0000
     12 C          -3.7648   -0.1180   -0.7368 C.ar    1  UNL1        0.0000
     13 C          -4.5966   -0.7327   -1.7092 C.ar    1  UNL1        0.0000
     14 C          -6.0136   -0.9342   -1.5536 C.ar    1  UNL1        0.0000
     15 C          -6.7515   -0.5377   -0.4158 C.ar    1  UNL1        0.0000
     16 C          -5.9228    0.0741    0.5153 C.ar    1  UNL1        0.0000
     17 C          -6.3223    0.5953    1.7183 C.ar    1  UNL1        0.0000
     18 N          -5.1989    1.1252    2.3154 N.ar    1  UNL1        0.0000
     19 C          -4.0962    0.9490    1.5043 C.ar    1  UNL1        0.0000
     20 C          -4.5138    0.2792    0.3784 C.ar    1  UNL1        0.0000
     21 C          -1.6997    0.6411   -1.9337 C.ar    1  UNL1        0.0000
     22 O          -2.2552    1.1908   -3.0509 O.2     1  UNL1        0.0000
     23 C          -1.1093    1.5973   -3.7080 C.ar    1  UNL1        0.0000
     24 C           0.0778    1.3071   -3.0252 C.ar    1  UNL1        0.0000
     25 C          -0.3280    0.6632   -1.8413 C.ar    1  UNL1        0.0000
     26 C           5.3396   -1.0848   -0.5621 C.ar    1  UNL1        0.0000
     27 C           6.0840   -2.0100    0.1452 C.ar    1  UNL1        0.0000
     28 C           7.3739   -2.2232   -0.4242 C.ar    1  UNL1        0.0000
     29 C           7.5741   -1.4510   -1.5459 C.ar    1  UNL1        0.0000
     30 S           6.2144   -0.4790   -1.9065 S.2     1  UNL1        0.0000
     31 H           4.6707   -0.7799    3.4044 H       1  UNL1        0.0000
     32 H           5.2325    1.5035    2.5300 H       1  UNL1        0.0000
     33 H           2.3627    1.4391    4.0646 H       1  UNL1        0.0000
     34 H           0.5982    1.1522    2.1890 H       1  UNL1        0.0000
     35 H          -4.1415   -1.0808   -2.6379 H       1  UNL1        0.0000
     36 H          -6.5480   -1.4216   -2.3698 H       1  UNL1        0.0000
     37 H          -7.8159   -0.6895   -0.3113 H       1  UNL1        0.0000
     38 H          -7.2862    0.6508    2.2052 H       1  UNL1        0.0000
     39 H          -5.1856    1.5882    3.2146 H       1  UNL1        0.0000
     40 H          -3.1308    1.3236    1.8143 H       1  UNL1        0.0000
     41 H          -1.2985    2.0828   -4.6566 H       1  UNL1        0.0000
     42 H           1.0785    1.5393   -3.3608 H       1  UNL1        0.0000
     43 H           5.7179   -2.5248    1.0255 H       1  UNL1        0.0000
     44 H           8.1140   -2.9105   -0.0329 H       1  UNL1        0.0000
     45 H           8.4525   -1.4103   -2.1754 H       1  UNL1        0.0000
@<TRIPOS>BOND
     1     1     2    1
     2     2     3    2
     3     3     4    1
     4     4     5   ar
     5     5     6   ar
     6     6     7   ar
     7     7     8   ar
     8     8     9    1
     9     9    10   ar
    10    10    11   ar
    11    11    12    1
    12    12    13   ar
    13    13    14   ar
    14    14    15   ar
    15    15    16   ar
    16    16    17   ar
    17    17    18   ar
    18    18    19   ar
    19    19    20   ar
    20    11    21   ar
    21    21    22   ar
    22    22    23   ar
    23    23    24   ar
    24    24    25   ar
    25     6    26    1
    26    26    27   ar
    27    27    28   ar
    28    28    29   ar
    29    29    30   ar
    30     5     1    1
    31    25     9   ar
    32    30    26   ar
    33     8     4   ar
    34    20    12   ar
    35    25    21   ar
    36    20    16   ar
    37     1    31    1
    38     1    32    1
    39     2    33    1
    40     3    34    1
    41    13    35    1
    42    14    36    1
    43    15    37    1
    44    17    38    1
    45    18    39    1
    46    19    40    1
    47    23    41    1
    48    24    42    1
    49    27    43    1
    50    28    44    1
    51    29    45    1
