@<TRIPOS>MOLECULE
*****
 38 43 0 0 0
SMALL
GASTEIGER

@<TRIPOS>ATOM
      1 SI         -4.0903    1.2293   -1.0618 Si      1  UNL1        0.0000
      2 C          -2.6959    1.4957   -2.3339 C.2     1  UNL1        0.0000
      3 C          -1.5009    1.0979   -1.8453 C.2     1  UNL1        0.0000
      4 C          -1.5311    0.5707   -0.5096 C.ar    1  UNL1        0.0000
      5 C          -2.8082    0.5184    0.1204 C.ar    1  UNL1        0.0000
      6 C          -2.8141    0.0052    1.3835 C.ar    1  UNL1        0.0000
      7 S          -1.2013   -0.4354    1.8137 S.2     1  UNL1        0.0000
      8 C          -0.5315    0.0793    0.2990 C.ar    1  UNL1        0.0000
      9 C           0.8731   -0.0299    0.0445 C.ar    1  UNL1        0.0000
     10 S           1.8093   -1.4654    0.2859 S.2     1  UNL1        0.0000
     11 C           3.2996   -0.7346   -0.2532 C.ar    1  UNL1        0.0000
     12 C           4.5280   -1.4761   -0.2857 C.ar    1  UNL1        0.0000
     13 C           5.8013   -1.0572   -0.6434 C.ar    1  UNL1        0.0000
     14 C           6.6716   -2.1668   -0.5067 C.ar    1  UNL1        0.0000
     15 C           5.8894   -3.2064   -0.0733 C.ar    1  UNL1        0.0000
     16 O           4.6029   -2.8043    0.0624 O.2     1  UNL1        0.0000
     17 C           3.0192    0.5488   -0.5852 C.ar    1  UNL1        0.0000
     18 C           3.6387    1.7184   -1.0700 C.ar    1  UNL1        0.0000
     19 C           2.6190    2.6741   -1.1406 C.ar    1  UNL1        0.0000
     20 O           1.3823    2.2112   -0.7402 O.2     1  UNL1        0.0000
     21 C           1.7040    0.9241   -0.4230 C.ar    1  UNL1        0.0000
     22 C          -3.9233   -0.2045    2.2729 C.ar    1  UNL1        0.0000
     23 C          -5.0786   -0.9141    2.0049 C.ar    1  UNL1        0.0000
     24 C          -5.9887   -0.9109    3.1029 C.ar    1  UNL1        0.0000
     25 C          -5.4999   -0.1959    4.1726 C.ar    1  UNL1        0.0000
     26 S          -3.9554    0.4638    3.8513 S.2     1  UNL1        0.0000
     27 H          -5.0715    0.2277   -1.5510 H       1  UNL1        0.0000
     28 H          -4.6707    2.5261   -0.6336 H       1  UNL1        0.0000
     29 H          -2.8998    1.9198   -3.3037 H       1  UNL1        0.0000
     30 H          -0.5815    1.1710   -2.4151 H       1  UNL1        0.0000
     31 H           6.0786   -0.0645   -0.9653 H       1  UNL1        0.0000
     32 H           7.7346   -2.2023   -0.6991 H       1  UNL1        0.0000
     33 H           6.0835   -4.2411    0.1728 H       1  UNL1        0.0000
     34 H           4.6719    1.8835   -1.3365 H       1  UNL1        0.0000
     35 H           2.6185    3.7115   -1.4497 H       1  UNL1        0.0000
     36 H          -5.2613   -1.4270    1.0682 H       1  UNL1        0.0000
     37 H          -6.9494   -1.4109    3.1081 H       1  UNL1        0.0000
     38 H          -5.9723   -0.0289    5.1309 H       1  UNL1        0.0000
@<TRIPOS>BOND
     1     1     2    1
     2     2     3    2
     3     3     4    1
     4     4     5   ar
     5     5     6   ar
     6     6     7   ar
     7     7     8   ar
     8     8     9    1
     9     9    10   ar
    10    10    11   ar
    11    11    12    1
    12    12    13   ar
    13    13    14   ar
    14    14    15   ar
    15    15    16   ar
    16    11    17   ar
    17    17    18   ar
    18    18    19   ar
    19    19    20   ar
    20    20    21   ar
    21     6    22    1
    22    22    23   ar
    23    23    24   ar
    24    24    25   ar
    25    25    26   ar
    26     5     1    1
    27    21     9   ar
    28    26    22   ar
    29     8     4   ar
    30    16    12   ar
    31    21    17   ar
    32     1    27    1
    33     1    28    1
    34     2    29    1
    35     3    30    1
    36    13    31    1
    37    14    32    1
    38    15    33    1
    39    18    34    1
    40    19    35    1
    41    23    36    1
    42    24    37    1
    43    25    38    1
