@<TRIPOS>MOLECULE
*****
 42 48 0 0 0
SMALL
GASTEIGER

@<TRIPOS>ATOM
      1 SI          2.9971   -1.8748    2.1326 Si      1  UNL1        0.0000
      2 C           1.2650   -2.6271    2.4112 C.2     1  UNL1        0.0000
      3 C           0.3111   -1.9191    1.7679 C.2     1  UNL1        0.0000
      4 C           0.7873   -0.7814    1.0331 C.ar    1  UNL1        0.0000
      5 C           2.1912   -0.5459    1.0693 C.ar    1  UNL1        0.0000
      6 C           2.6125    0.5489    0.3760 C.ar    1  UNL1        0.0000
      7 S           1.2488    1.3188   -0.3466 S.2     1  UNL1        0.0000
      8 C           0.1207    0.1660    0.2907 C.ar    1  UNL1        0.0000
      9 C          -1.2875    0.2708    0.0093 C.ar    1  UNL1        0.0000
     10 S          -2.1706    1.6853    0.4213 S.2     1  UNL1        0.0000
     11 C          -3.6630    1.0637   -0.1761 C.ar    1  UNL1        0.0000
     12 C          -4.8596    1.8644   -0.1006 C.ar    1  UNL1        0.0000
     13 C          -6.1478    1.5765   -0.5299 C.ar    1  UNL1        0.0000
     14 C          -6.9642    2.6930   -0.2256 C.ar    1  UNL1        0.0000
     15 C          -6.1384    3.6086    0.3740 C.ar    1  UNL1        0.0000
     16 O          -4.8758    3.1244    0.4551 O.2     1  UNL1        0.0000
     17 C          -3.4859   -0.2090   -0.6791 C.ar    1  UNL1        0.0000
     18 N          -4.4875   -0.9653   -1.2236 N.ar    1  UNL1        0.0000
     19 C          -4.0274   -2.1738   -1.6417 C.ar    1  UNL1        0.0000
     20 C          -2.7053   -2.6116   -1.5351 C.ar    1  UNL1        0.0000
     21 N          -1.6876   -1.8925   -0.9969 N.ar    1  UNL1        0.0000
     22 C          -2.1150   -0.6667   -0.5682 C.ar    1  UNL1        0.0000
     23 C           3.9408    1.0504    0.1984 C.ar    1  UNL1        0.0000
     24 S           4.4424    2.5776    0.8243 S.2     1  UNL1        0.0000
     25 C           6.0566    2.4002    0.2436 C.ar    1  UNL1        0.0000
     26 C           6.1986    1.2088   -0.4082 C.ar    1  UNL1        0.0000
     27 S           7.6241    0.4682   -1.2212 S.2     1  UNL1        0.0000
     28 C           6.5324   -0.8619   -1.5870 C.ar    1  UNL1        0.0000
     29 C           5.2184   -0.7317   -1.1220 C.ar    1  UNL1        0.0000
     30 C           5.0076    0.4836   -0.4167 C.ar    1  UNL1        0.0000
     31 H           3.5675   -1.3764    3.4085 H       1  UNL1        0.0000
     32 H           3.8593   -2.8126    1.3700 H       1  UNL1        0.0000
     33 H           1.1329   -3.5104    3.0148 H       1  UNL1        0.0000
     34 H          -0.7392   -2.1863    1.7959 H       1  UNL1        0.0000
     35 H          -6.4645    0.6613   -1.0109 H       1  UNL1        0.0000
     36 H          -8.0203    2.8121   -0.4206 H       1  UNL1        0.0000
     37 H          -6.2851    4.6000    0.7792 H       1  UNL1        0.0000
     38 H          -4.7795   -2.8186   -2.0881 H       1  UNL1        0.0000
     39 H          -2.4255   -3.5966   -1.8983 H       1  UNL1        0.0000
     40 H           6.8138    3.1564    0.3979 H       1  UNL1        0.0000
     41 H           6.9398   -1.6912   -2.1493 H       1  UNL1        0.0000
     42 H           4.4617   -1.4863   -1.3008 H       1  UNL1        0.0000
@<TRIPOS>BOND
     1     1     2    1
     2     2     3    2
     3     3     4    1
     4     4     5   ar
     5     5     6   ar
     6     6     7   ar
     7     7     8   ar
     8     8     9    1
     9     9    10   ar
    10    10    11   ar
    11    11    12    1
    12    12    13   ar
    13    13    14   ar
    14    14    15   ar
    15    15    16   ar
    16    11    17   ar
    17    17    18   ar
    18    18    19   ar
    19    19    20   ar
    20    20    21   ar
    21    21    22   ar
    22     6    23    1
    23    23    24   ar
    24    24    25   ar
    25    25    26   ar
    26    26    27   ar
    27    27    28   ar
    28    28    29   ar
    29    29    30   ar
    30     5     1    1
    31    22     9   ar
    32    30    23   ar
    33     8     4   ar
    34    16    12   ar
    35    22    17   ar
    36    30    26   ar
    37     1    31    1
    38     1    32    1
    39     2    33    1
    40     3    34    1
    41    13    35    1
    42    14    36    1
    43    15    37    1
    44    19    38    1
    45    20    39    1
    46    25    40    1
    47    28    41    1
    48    29    42    1
