@<TRIPOS>MOLECULE
*****
 44 50 0 0 0
SMALL
GASTEIGER

@<TRIPOS>ATOM
      1 SI         -2.4134    2.9464   -1.0759 Si      1  UNL1        0.0000
      2 C          -0.6173    3.5844   -1.2014 C.2     1  UNL1        0.0000
      3 C           0.2739    2.6200   -0.8840 C.2     1  UNL1        0.0000
      4 C          -0.2992    1.3528   -0.5271 C.ar    1  UNL1        0.0000
      5 C          -1.7206    1.2727   -0.5542 C.ar    1  UNL1        0.0000
      6 C          -2.2401    0.0541   -0.2337 C.ar    1  UNL1        0.0000
      7 S          -0.9483   -1.0356    0.1077 S.2     1  UNL1        0.0000
      8 C           0.2803    0.1562   -0.1714 C.ar    1  UNL1        0.0000
      9 C           1.6633   -0.1682   -0.0069 C.ar    1  UNL1        0.0000
     10 S           2.7534    0.7019    1.0165 S.2     1  UNL1        0.0000
     11 C           4.1194   -0.3219    0.6453 C.ar    1  UNL1        0.0000
     12 C           5.4263   -0.1381    1.2225 C.ar    1  UNL1        0.0000
     13 C           6.3469   -1.1273    1.5215 C.ar    1  UNL1        0.0000
     14 C           7.5566   -0.6108    2.0726 C.ar    1  UNL1        0.0000
     15 C           7.5280    0.7604    2.1758 C.ar    1  UNL1        0.0000
     16 S           6.0533    1.4132    1.6130 S.2     1  UNL1        0.0000
     17 C           3.6806   -1.2640   -0.2256 C.ar    1  UNL1        0.0000
     18 C           4.1491   -2.3686   -0.9635 C.ar    1  UNL1        0.0000
     19 C           3.0381   -2.8291   -1.6793 C.ar    1  UNL1        0.0000
     20 O           1.8847   -2.1010   -1.4636 O.2     1  UNL1        0.0000
     21 C           2.3530   -1.1772   -0.5764 C.ar    1  UNL1        0.0000
     22 C          -3.6072   -0.4077   -0.1567 C.ar    1  UNL1        0.0000
     23 C          -4.2095   -1.3231   -1.0542 C.ar    1  UNL1        0.0000
     24 C          -5.5844   -1.7487   -0.9667 C.ar    1  UNL1        0.0000
     25 C          -6.4965   -1.3069    0.0219 C.ar    1  UNL1        0.0000
     26 C          -5.8760   -0.4161    0.8877 C.ar    1  UNL1        0.0000
     27 C          -6.4345    0.2104    1.9687 C.ar    1  UNL1        0.0000
     28 O          -5.4936    1.0001    2.5734 O.2     1  UNL1        0.0000
     29 C          -4.3268    0.8683    1.8684 C.ar    1  UNL1        0.0000
     30 C          -4.5181    0.0139    0.8129 C.ar    1  UNL1        0.0000
     31 H          -3.0660    2.9491   -2.4089 H       1  UNL1        0.0000
     32 H          -3.1448    3.6584    0.0012 H       1  UNL1        0.0000
     33 H          -0.4093    4.5993   -1.4996 H       1  UNL1        0.0000
     34 H           1.3451    2.7849   -0.9043 H       1  UNL1        0.0000
     35 H           6.1625   -2.1833    1.3667 H       1  UNL1        0.0000
     36 H           8.4014   -1.2153    2.3795 H       1  UNL1        0.0000
     37 H           8.3015    1.4135    2.5563 H       1  UNL1        0.0000
     38 H           5.1437   -2.7886   -1.0005 H       1  UNL1        0.0000
     39 H           2.9136   -3.6480   -2.3760 H       1  UNL1        0.0000
     40 H          -3.6047   -1.7325   -1.8650 H       1  UNL1        0.0000
     41 H          -5.9408   -2.4594   -1.7141 H       1  UNL1        0.0000
     42 H          -7.5242   -1.6361    0.0774 H       1  UNL1        0.0000
     43 H          -7.4112    0.2138    2.4310 H       1  UNL1        0.0000
     44 H          -3.4882    1.4336    2.2505 H       1  UNL1        0.0000
@<TRIPOS>BOND
     1     1     2    1
     2     2     3    2
     3     3     4    1
     4     4     5   ar
     5     5     6   ar
     6     6     7   ar
     7     7     8   ar
     8     8     9    1
     9     9    10   ar
    10    10    11   ar
    11    11    12    1
    12    12    13   ar
    13    13    14   ar
    14    14    15   ar
    15    15    16   ar
    16    11    17   ar
    17    17    18   ar
    18    18    19   ar
    19    19    20   ar
    20    20    21   ar
    21     6    22    1
    22    22    23   ar
    23    23    24   ar
    24    24    25   ar
    25    25    26   ar
    26    26    27   ar
    27    27    28   ar
    28    28    29   ar
    29    29    30   ar
    30     5     1    1
    31    21     9   ar
    32    30    22   ar
    33     8     4   ar
    34    16    12   ar
    35    21    17   ar
    36    30    26   ar
    37     1    31    1
    38     1    32    1
    39     2    33    1
    40     3    34    1
    41    13    35    1
    42    14    36    1
    43    15    37    1
    44    18    38    1
    45    19    39    1
    46    23    40    1
    47    24    41    1
    48    25    42    1
    49    27    43    1
    50    29    44    1
