@<TRIPOS>MOLECULE
*****
 44 50 0 0 0
SMALL
GASTEIGER

@<TRIPOS>ATOM
      1 SI          3.6129   -1.3060    0.4730 Si      1  UNL1        0.0000
      2 C           2.4462   -2.3747    1.5489 C.2     1  UNL1        0.0000
      3 C           1.1726   -1.9283    1.4911 C.2     1  UNL1        0.0000
      4 C           0.9696   -0.7741    0.6625 C.ar    1  UNL1        0.0000
      5 C           2.1178   -0.2597   -0.0021 C.ar    1  UNL1        0.0000
      6 C           1.8923    0.8295   -0.7903 C.ar    1  UNL1        0.0000
      7 S           0.2199    1.2468   -0.7091 S.2     1  UNL1        0.0000
      8 C          -0.1630   -0.0499    0.3732 C.ar    1  UNL1        0.0000
      9 C          -1.4977   -0.2352    0.8637 C.ar    1  UNL1        0.0000
     10 S          -2.8334   -0.5357   -0.1806 S.2     1  UNL1        0.0000
     11 C          -3.9643   -0.6548    1.1183 C.ar    1  UNL1        0.0000
     12 C          -5.3603   -0.9331    0.9284 C.ar    1  UNL1        0.0000
     13 C          -6.1256   -1.8769    1.5890 C.ar    1  UNL1        0.0000
     14 C          -7.4854   -1.8817    1.1594 C.ar    1  UNL1        0.0000
     15 C          -7.7182   -0.9413    0.1825 C.ar    1  UNL1        0.0000
     16 S          -6.3058   -0.0633   -0.2109 S.2     1  UNL1        0.0000
     17 C          -3.3284   -0.4641    2.3183 C.ar    1  UNL1        0.0000
     18 S          -3.9311   -0.4411    4.0276 S.2     1  UNL1        0.0000
     19 C          -2.2627   -0.1089    4.4613 C.ar    1  UNL1        0.0000
     20 C          -1.3526   -0.0243    3.4033 C.ar    1  UNL1        0.0000
     21 C          -1.9619   -0.2354    2.1373 C.ar    1  UNL1        0.0000
     22 C           2.7880    1.6139   -1.6092 C.ar    1  UNL1        0.0000
     23 C           3.1921    2.9429   -1.3324 C.ar    1  UNL1        0.0000
     24 C           4.1070    3.6933   -2.1564 C.ar    1  UNL1        0.0000
     25 C           4.7104    3.1972   -3.3373 C.ar    1  UNL1        0.0000
     26 C           4.2913    1.8965   -3.5836 C.ar    1  UNL1        0.0000
     27 C           4.6524    1.0970   -4.6342 C.ar    1  UNL1        0.0000
     28 O           4.0153   -0.1101   -4.5274 O.2     1  UNL1        0.0000
     29 C           3.2400   -0.0712   -3.3990 C.ar    1  UNL1        0.0000
     30 C           3.3879    1.1424   -2.7778 C.ar    1  UNL1        0.0000
     31 H           4.6037   -0.6002    1.3230 H       1  UNL1        0.0000
     32 H           4.1694   -2.1086   -0.6438 H       1  UNL1        0.0000
     33 H           2.8236   -3.2212    2.0998 H       1  UNL1        0.0000
     34 H           0.3577   -2.4070    2.0226 H       1  UNL1        0.0000
     35 H          -5.7309   -2.5441    2.3460 H       1  UNL1        0.0000
     36 H          -8.2510   -2.5423    1.5473 H       1  UNL1        0.0000
     37 H          -8.6499   -0.7257   -0.3223 H       1  UNL1        0.0000
     38 H          -2.0435    0.0158    5.5132 H       1  UNL1        0.0000
     39 H          -0.3012    0.1878    3.5581 H       1  UNL1        0.0000
     40 H           2.7948    3.4346   -0.4432 H       1  UNL1        0.0000
     41 H           4.3465    4.7117   -1.8460 H       1  UNL1        0.0000
     42 H           5.3925    3.7718   -3.9474 H       1  UNL1        0.0000
     43 H           5.2981    1.2078   -5.4936 H       1  UNL1        0.0000
     44 H           2.6649   -0.9650   -3.2014 H       1  UNL1        0.0000
@<TRIPOS>BOND
     1     1     2    1
     2     2     3    2
     3     3     4    1
     4     4     5   ar
     5     5     6   ar
     6     6     7   ar
     7     7     8   ar
     8     8     9    1
     9     9    10   ar
    10    10    11   ar
    11    11    12    1
    12    12    13   ar
    13    13    14   ar
    14    14    15   ar
    15    15    16   ar
    16    11    17   ar
    17    17    18   ar
    18    18    19   ar
    19    19    20   ar
    20    20    21   ar
    21     6    22    1
    22    22    23   ar
    23    23    24   ar
    24    24    25   ar
    25    25    26   ar
    26    26    27   ar
    27    27    28   ar
    28    28    29   ar
    29    29    30   ar
    30     5     1    1
    31    21     9   ar
    32    30    22   ar
    33     8     4   ar
    34    16    12   ar
    35    21    17   ar
    36    30    26   ar
    37     1    31    1
    38     1    32    1
    39     2    33    1
    40     3    34    1
    41    13    35    1
    42    14    36    1
    43    15    37    1
    44    19    38    1
    45    20    39    1
    46    23    40    1
    47    24    41    1
    48    25    42    1
    49    27    43    1
    50    29    44    1
