@<TRIPOS>MOLECULE
*****
 45 51 0 0 0
SMALL
GASTEIGER

@<TRIPOS>ATOM
      1 SI         -3.1011   -2.8109    2.0931 Si      1  UNL1        0.0000
      2 C          -1.4605   -2.5973    3.0540 C.2     1  UNL1        0.0000
      3 C          -0.6375   -1.7219    2.4364 C.2     1  UNL1        0.0000
      4 C          -1.1523   -1.1562    1.2220 C.ar    1  UNL1        0.0000
      5 C          -2.4506   -1.5816    0.8231 C.ar    1  UNL1        0.0000
      6 C          -2.9231   -1.0136   -0.3236 C.ar    1  UNL1        0.0000
      7 S          -1.7339    0.0788   -0.9390 S.2     1  UNL1        0.0000
      8 C          -0.6193   -0.2396    0.3469 C.ar    1  UNL1        0.0000
      9 C           0.6598    0.4132    0.3818 C.ar    1  UNL1        0.0000
     10 S           2.1103   -0.4963    0.1977 S.2     1  UNL1        0.0000
     11 C           3.1084    0.8953    0.3121 C.ar    1  UNL1        0.0000
     12 C           4.5448    0.7544    0.1938 C.ar    1  UNL1        0.0000
     13 C           5.3768    0.2313    1.1863 C.ar    1  UNL1        0.0000
     14 N           6.7425    0.0875    1.1369 N.ar    1  UNL1        0.0000
     15 C           7.4453    0.4829    0.0335 C.ar    1  UNL1        0.0000
     16 C           6.7315    1.0337   -1.0506 C.ar    1  UNL1        0.0000
     17 N           7.2484    1.4710   -2.2105 N.ar    1  UNL1        0.0000
     18 S           5.9664    2.0081   -3.1192 S.2     1  UNL1        0.0000
     19 N           4.7036    1.6979   -2.0903 N.ar    1  UNL1        0.0000
     20 C           5.2329    1.1729   -0.9696 C.ar    1  UNL1        0.0000
     21 C           2.3544    2.0286    0.5104 C.ar    1  UNL1        0.0000
     22 N           2.8973    3.2707    0.6713 N.ar    1  UNL1        0.0000
     23 C           1.9247    4.2058    0.8459 C.ar    1  UNL1        0.0000
     24 C           0.5506    3.9435    0.8774 C.ar    1  UNL1        0.0000
     25 N          -0.0156    2.7150    0.7388 N.ar    1  UNL1        0.0000
     26 C           0.9355    1.7535    0.5456 C.ar    1  UNL1        0.0000
     27 C          -4.1830   -1.2042   -1.0372 C.ar    1  UNL1        0.0000
     28 C          -5.0884   -0.1456   -1.1885 C.ar    1  UNL1        0.0000
     29 C          -6.2997   -0.3398   -1.8561 C.ar    1  UNL1        0.0000
     30 C          -6.6163   -1.5933   -2.3769 C.ar    1  UNL1        0.0000
     31 C          -5.7229   -2.6534   -2.2323 C.ar    1  UNL1        0.0000
     32 C          -4.5115   -2.4604   -1.5646 C.ar    1  UNL1        0.0000
     33 H          -4.2442   -2.3187    2.9015 H       1  UNL1        0.0000
     34 H          -3.2288   -4.1986    1.5806 H       1  UNL1        0.0000
     35 H          -1.2834   -3.1341    3.9719 H       1  UNL1        0.0000
     36 H           0.3375   -1.4570    2.8283 H       1  UNL1        0.0000
     37 H           4.9450   -0.1111    2.1270 H       1  UNL1        0.0000
     38 H           8.5192    0.3522    0.0441 H       1  UNL1        0.0000
     39 H           2.2874    5.2228    0.9673 H       1  UNL1        0.0000
     40 H          -0.1559    4.7559    1.0234 H       1  UNL1        0.0000
     41 H          -4.8563    0.8367   -0.7826 H       1  UNL1        0.0000
     42 H          -6.9945    0.4884   -1.9694 H       1  UNL1        0.0000
     43 H          -7.5582   -1.7429   -2.8984 H       1  UNL1        0.0000
     44 H          -5.9664   -3.6297   -2.6433 H       1  UNL1        0.0000
     45 H          -3.8189   -3.2937   -1.4704 H       1  UNL1        0.0000
@<TRIPOS>BOND
     1     1     2    1
     2     2     3    2
     3     3     4    1
     4     4     5   ar
     5     5     6   ar
     6     6     7   ar
     7     7     8   ar
     8     8     9    1
     9     9    10   ar
    10    10    11   ar
    11    11    12    1
    12    12    13   ar
    13    13    14   ar
    14    14    15   ar
    15    15    16   ar
    16    16    17   ar
    17    17    18   ar
    18    18    19   ar
    19    19    20   ar
    20    11    21   ar
    21    21    22   ar
    22    22    23   ar
    23    23    24   ar
    24    24    25   ar
    25    25    26   ar
    26     6    27    1
    27    27    28   ar
    28    28    29   ar
    29    29    30   ar
    30    30    31   ar
    31    31    32   ar
    32     5     1    1
    33    26     9   ar
    34    32    27   ar
    35     8     4   ar
    36    20    12   ar
    37    26    21   ar
    38    20    16   ar
    39     1    33    1
    40     1    34    1
    41     2    35    1
    42     3    36    1
    43    13    37    1
    44    15    38    1
    45    23    39    1
    46    24    40    1
    47    28    41    1
    48    29    42    1
    49    30    43    1
    50    31    44    1
    51    32    45    1
