@<TRIPOS>MOLECULE
*****
 44 50 0 0 0
SMALL
GASTEIGER

@<TRIPOS>ATOM
      1 SI          4.6432    1.3638   -1.5652 Si      1  UNL1        0.0000
      2 C           3.1507    2.3717   -2.1883 C.2     1  UNL1        0.0000
      3 C           1.9861    1.8577   -1.7371 C.2     1  UNL1        0.0000
      4 C           2.1177    0.7035   -0.8934 C.ar    1  UNL1        0.0000
      5 C           3.4426    0.2470   -0.6334 C.ar    1  UNL1        0.0000
      6 C           3.5278   -0.8594    0.1600 C.ar    1  UNL1        0.0000
      7 S           1.9307   -1.3738    0.5764 S.2     1  UNL1        0.0000
      8 C           1.1694   -0.0832   -0.2844 C.ar    1  UNL1        0.0000
      9 C          -0.2527    0.0617   -0.2875 C.ar    1  UNL1        0.0000
     10 S          -1.3474   -1.0986   -0.9605 S.2     1  UNL1        0.0000
     11 C          -2.7641   -0.1578   -0.5833 C.ar    1  UNL1        0.0000
     12 C          -4.0875   -0.6018   -0.8845 C.ar    1  UNL1        0.0000
     13 S          -4.5857   -1.2036   -2.4363 S.2     1  UNL1        0.0000
     14 C          -6.2349   -1.4448   -1.9400 C.ar    1  UNL1        0.0000
     15 C          -6.3269   -1.0766   -0.6467 C.ar    1  UNL1        0.0000
     16 C          -7.2641   -0.9919    0.4112 C.ar    1  UNL1        0.0000
     17 C          -6.5718   -0.4978    1.5375 C.ar    1  UNL1        0.0000
     18 N          -5.2282   -0.2615    1.2526 N.ar    1  UNL1        0.0000
     19 C          -5.1642   -0.6208   -0.0651 C.ar    1  UNL1        0.0000
     20 C          -2.3406    0.9756    0.0232 C.ar    1  UNL1        0.0000
     21 C          -2.8258    2.1874    0.5846 C.ar    1  UNL1        0.0000
     22 C          -1.7068    2.9092    1.0509 C.ar    1  UNL1        0.0000
     23 N          -0.5180    2.2253    0.8093 N.ar    1  UNL1        0.0000
     24 C          -0.9780    1.0969    0.1900 C.ar    1  UNL1        0.0000
     25 C           4.6804   -1.5664    0.6315 C.ar    1  UNL1        0.0000
     26 C           4.9173   -2.9260    0.7133 C.ar    1  UNL1        0.0000
     27 C           6.2133   -3.1104    1.2545 C.ar    1  UNL1        0.0000
     28 C           6.7322   -1.8610    1.5047 C.ar    1  UNL1        0.0000
     29 N           5.7938   -0.9336    1.1327 N.ar    1  UNL1        0.0000
     30 H           5.4988    2.1613   -0.6495 H       1  UNL1        0.0000
     31 H           5.3546    0.7077   -2.6884 H       1  UNL1        0.0000
     32 H           3.2846    3.2214   -2.8387 H       1  UNL1        0.0000
     33 H           1.0187    2.2710   -2.0023 H       1  UNL1        0.0000
     34 H          -6.9801   -1.8331   -2.6186 H       1  UNL1        0.0000
     35 H          -8.3132   -1.2554    0.3884 H       1  UNL1        0.0000
     36 H          -6.9364   -0.2988    2.5372 H       1  UNL1        0.0000
     37 H          -4.4747    0.0757    1.8405 H       1  UNL1        0.0000
     38 H          -3.8537    2.5214    0.6463 H       1  UNL1        0.0000
     39 H          -1.6648    3.8754    1.5380 H       1  UNL1        0.0000
     40 H           0.4439    2.4683    1.0179 H       1  UNL1        0.0000
     41 H           4.2316   -3.7061    0.4067 H       1  UNL1        0.0000
     42 H           6.7086   -4.0536    1.4456 H       1  UNL1        0.0000
     43 H           7.6812   -1.5528    1.9226 H       1  UNL1        0.0000
     44 H           5.8924    0.0666    1.2394 H       1  UNL1        0.0000
@<TRIPOS>BOND
     1     1     2    1
     2     2     3    2
     3     3     4    1
     4     4     5   ar
     5     5     6   ar
     6     6     7   ar
     7     7     8   ar
     8     8     9    1
     9     9    10   ar
    10    10    11   ar
    11    11    12    1
    12    12    13   ar
    13    13    14   ar
    14    14    15   ar
    15    15    16   ar
    16    16    17   ar
    17    17    18   ar
    18    18    19   ar
    19    11    20   ar
    20    20    21   ar
    21    21    22   ar
    22    22    23   ar
    23    23    24   ar
    24     6    25    1
    25    25    26   ar
    26    26    27   ar
    27    27    28   ar
    28    28    29   ar
    29     5     1    1
    30    24     9   ar
    31    29    25   ar
    32     8     4   ar
    33    19    12   ar
    34    24    20   ar
    35    19    15   ar
    36     1    30    1
    37     1    31    1
    38     2    32    1
    39     3    33    1
    40    14    34    1
    41    16    35    1
    42    17    36    1
    43    18    37    1
    44    21    38    1
    45    22    39    1
    46    23    40    1
    47    26    41    1
    48    27    42    1
    49    28    43    1
    50    29    44    1
