@<TRIPOS>MOLECULE
*****
 40 46 0 0 0
SMALL
GASTEIGER

@<TRIPOS>ATOM
      1 SI          1.8631    2.2435   -0.5080 Si      1  UNL1        0.0000
      2 C           2.5954    0.6744    0.3452 C.2     1  UNL1        0.0000
      3 C           1.6322   -0.2171    0.6757 C.2     1  UNL1        0.0000
      4 C           0.3447    0.2473    0.2903 C.ar    1  UNL1        0.0000
      5 O          -0.8842   -0.3275    0.4187 O.2     1  UNL1        0.0000
      6 C          -1.7948    0.5472   -0.1257 C.ar    1  UNL1        0.0000
      7 C          -1.1563    1.6915   -0.6109 C.ar    1  UNL1        0.0000
      8 C          -1.9379    2.6836   -1.1991 C.ar    1  UNL1        0.0000
      9 N          -3.2875    2.5358   -1.2973 N.ar    1  UNL1        0.0000
     10 C          -3.9051    1.4356   -0.8304 C.ar    1  UNL1        0.0000
     11 C          -5.3230    1.3405   -0.9620 C.ar    1  UNL1        0.0000
     12 C          -6.1417    0.2597   -0.5298 C.ar    1  UNL1        0.0000
     13 C          -5.3684   -0.7293    0.0580 C.ar    1  UNL1        0.0000
     14 C          -5.8232   -1.9083    0.5867 C.ar    1  UNL1        0.0000
     15 N          -4.7178   -2.5836    1.0626 N.ar    1  UNL1        0.0000
     16 C          -3.5732   -1.8454    0.8393 C.ar    1  UNL1        0.0000
     17 C          -3.9539   -0.6844    0.2138 C.ar    1  UNL1        0.0000
     18 C          -3.1669    0.3845   -0.2170 C.ar    1  UNL1        0.0000
     19 C           0.1864    1.4695   -0.3336 C.ar    1  UNL1        0.0000
     20 C           3.9731    0.5076    0.5736 C.ar    1  UNL1        0.0000
     21 S           4.9740    1.6428    1.4324 S.2     1  UNL1        0.0000
     22 C           6.4096    0.6775    1.2706 C.ar    1  UNL1        0.0000
     23 C           6.0759   -0.4331    0.5843 C.ar    1  UNL1        0.0000
     24 C           6.6459   -1.6239    0.0736 C.ar    1  UNL1        0.0000
     25 C           5.6117   -2.3305   -0.5763 C.ar    1  UNL1        0.0000
     26 N           4.3991   -1.6471   -0.5068 N.ar    1  UNL1        0.0000
     27 C           4.7561   -0.5334    0.2021 C.ar    1  UNL1        0.0000
     28 H           2.0386    3.4676    0.3140 H       1  UNL1        0.0000
     29 H           2.3145    2.3585   -1.9183 H       1  UNL1        0.0000
     30 H           1.7808   -1.1645    1.1759 H       1  UNL1        0.0000
     31 H          -1.5311    3.6041   -1.6023 H       1  UNL1        0.0000
     32 H          -5.8241    2.1833   -1.4422 H       1  UNL1        0.0000
     33 H          -7.2145    0.2394   -0.6542 H       1  UNL1        0.0000
     34 H          -6.8124   -2.3362    0.6754 H       1  UNL1        0.0000
     35 H          -4.7416   -3.4896    1.5123 H       1  UNL1        0.0000
     36 H          -2.6077   -2.2217    1.1499 H       1  UNL1        0.0000
     37 H           7.3575    0.9962    1.6789 H       1  UNL1        0.0000
     38 H           7.6744   -1.9512    0.1499 H       1  UNL1        0.0000
     39 H           5.6469   -3.2811   -1.0933 H       1  UNL1        0.0000
     40 H           3.4857   -1.8820   -0.8760 H       1  UNL1        0.0000
@<TRIPOS>BOND
     1     1     2    1
     2     2     3    2
     3     3     4    1
     4     4     5   ar
     5     5     6   ar
     6     6     7   ar
     7     7     8   ar
     8     8     9   ar
     9     9    10   ar
    10    10    11   ar
    11    11    12   ar
    12    12    13   ar
    13    13    14   ar
    14    14    15   ar
    15    15    16   ar
    16    16    17   ar
    17    17    18   ar
    18     7    19   ar
    19     2    20    1
    20    20    21   ar
    21    21    22   ar
    22    22    23   ar
    23    23    24   ar
    24    24    25   ar
    25    25    26   ar
    26    26    27   ar
    27    19     1    1
    28    27    20   ar
    29    19     4   ar
    30    27    23   ar
    31    18     6   ar
    32    18    10   ar
    33    17    13   ar
    34     1    28    1
    35     1    29    1
    36     3    30    1
    37     8    31    1
    38    11    32    1
    39    12    33    1
    40    14    34    1
    41    15    35    1
    42    16    36    1
    43    22    37    1
    44    24    38    1
    45    25    39    1
    46    26    40    1
