@<TRIPOS>MOLECULE
*****
 45 52 0 0 0
SMALL
GASTEIGER

@<TRIPOS>ATOM
      1 SI         -3.8084   -2.6315    2.2089 Si      1  UNL1        0.0000
      2 C          -2.0869   -3.1465    2.8495 C.2     1  UNL1        0.0000
      3 C          -1.1051   -2.4580    2.2289 C.2     1  UNL1        0.0000
      4 C          -1.5527   -1.5109    1.2478 C.ar    1  UNL1        0.0000
      5 C          -2.9604   -1.4109    1.0443 C.ar    1  UNL1        0.0000
      6 C          -3.3504   -0.4792    0.1249 C.ar    1  UNL1        0.0000
      7 S          -1.9380    0.2931   -0.5140 S.2     1  UNL1        0.0000
      8 C          -0.8511   -0.6399    0.4505 C.ar    1  UNL1        0.0000
      9 C           0.5631   -0.4525    0.3497 C.ar    1  UNL1        0.0000
     10 S           1.3638    0.9857    0.8534 S.2     1  UNL1        0.0000
     11 C           2.9236    0.3939    0.4193 C.ar    1  UNL1        0.0000
     12 C           4.1073    1.1759    0.5777 C.ar    1  UNL1        0.0000
     13 S           4.6413    1.8353    2.0920 S.2     1  UNL1        0.0000
     14 C           6.0765    2.5398    1.4062 C.ar    1  UNL1        0.0000
     15 C           6.0777    2.2561    0.0882 C.ar    1  UNL1        0.0000
     16 C           6.8418    2.4673   -1.0848 C.ar    1  UNL1        0.0000
     17 C           6.1530    1.8395   -2.1449 C.ar    1  UNL1        0.0000
     18 N           4.9763    1.2341   -1.7076 N.ar    1  UNL1        0.0000
     19 C           5.0085    1.5188   -0.3707 C.ar    1  UNL1        0.0000
     20 C           2.7669   -0.8593   -0.0758 C.ar    1  UNL1        0.0000
     21 C           3.6652   -1.8466   -0.5641 C.ar    1  UNL1        0.0000
     22 C           3.0125   -3.0136   -0.9750 C.ar    1  UNL1        0.0000
     23 S           1.2642   -3.0289   -0.8065 S.2     1  UNL1        0.0000
     24 C           1.4650   -1.3623   -0.1322 C.ar    1  UNL1        0.0000
     25 C          -4.6608   -0.1052   -0.3261 C.ar    1  UNL1        0.0000
     26 S          -5.8823   -1.2818   -0.7445 S.2     1  UNL1        0.0000
     27 C          -7.0601   -0.0860   -1.1737 C.ar    1  UNL1        0.0000
     28 C          -6.4955    1.1205   -0.9923 C.ar    1  UNL1        0.0000
     29 O          -7.0838    2.3268   -1.2139 O.2     1  UNL1        0.0000
     30 C          -6.0408    3.1616   -0.8566 C.ar    1  UNL1        0.0000
     31 C          -4.8846    2.4894   -0.4399 C.ar    1  UNL1        0.0000
     32 C          -5.1995    1.1201   -0.5378 C.ar    1  UNL1        0.0000
     33 H          -4.4708   -3.7701    1.5258 H       1  UNL1        0.0000
     34 H          -4.5986   -1.9871    3.2872 H       1  UNL1        0.0000
     35 H          -1.9804   -3.8993    3.6138 H       1  UNL1        0.0000
     36 H          -0.0542   -2.6020    2.4540 H       1  UNL1        0.0000
     37 H           6.7799    3.0944    2.0099 H       1  UNL1        0.0000
     38 H           7.7745    3.0078   -1.1788 H       1  UNL1        0.0000
     39 H           6.4112    1.7823   -3.1948 H       1  UNL1        0.0000
     40 H           4.2653    0.7236   -2.2182 H       1  UNL1        0.0000
     41 H           4.7424   -1.7374   -0.6154 H       1  UNL1        0.0000
     42 H           3.4743   -3.9040   -1.3804 H       1  UNL1        0.0000
     43 H          -8.0558   -0.3190   -1.5212 H       1  UNL1        0.0000
     44 H          -6.2715    4.2149   -0.9499 H       1  UNL1        0.0000
     45 H          -3.9627    2.9510   -0.1162 H       1  UNL1        0.0000
@<TRIPOS>BOND
     1     1     2    1
     2     2     3    2
     3     3     4    1
     4     4     5   ar
     5     5     6   ar
     6     6     7   ar
     7     7     8   ar
     8     8     9    1
     9     9    10   ar
    10    10    11   ar
    11    11    12    1
    12    12    13   ar
    13    13    14   ar
    14    14    15   ar
    15    15    16   ar
    16    16    17   ar
    17    17    18   ar
    18    18    19   ar
    19    11    20   ar
    20    20    21   ar
    21    21    22   ar
    22    22    23   ar
    23    23    24   ar
    24     6    25    1
    25    25    26   ar
    26    26    27   ar
    27    27    28   ar
    28    28    29   ar
    29    29    30   ar
    30    30    31   ar
    31    31    32   ar
    32     5     1    1
    33    24     9   ar
    34    32    25   ar
    35     8     4   ar
    36    19    12   ar
    37    24    20   ar
    38    32    28   ar
    39    19    15   ar
    40     1    33    1
    41     1    34    1
    42     2    35    1
    43     3    36    1
    44    14    37    1
    45    16    38    1
    46    17    39    1
    47    18    40    1
    48    21    41    1
    49    22    42    1
    50    27    43    1
    51    30    44    1
    52    31    45    1
