@<TRIPOS>MOLECULE
*****
 41 47 0 0 0
SMALL
GASTEIGER

@<TRIPOS>ATOM
      1 SI          0.4701    1.6996   -1.7570 Si      1  UNL1        0.0000
      2 C           2.2285    2.4132   -1.7902 C.2     1  UNL1        0.0000
      3 C           3.0284    1.7913   -0.8975 C.2     1  UNL1        0.0000
      4 C           2.3993    0.7512   -0.1317 C.ar    1  UNL1        0.0000
      5 C           1.0141    0.5213   -0.3886 C.ar    1  UNL1        0.0000
      6 C           0.4383   -0.4671    0.3587 C.ar    1  UNL1        0.0000
      7 S           1.6436   -1.1416    1.4016 S.2     1  UNL1        0.0000
      8 C           2.8975   -0.0881    0.8382 C.ar    1  UNL1        0.0000
      9 C           4.2252   -0.1826    1.3662 C.ar    1  UNL1        0.0000
     10 S           4.6139   -0.2112    3.0600 S.2     1  UNL1        0.0000
     11 C           6.3290   -0.3216    2.7813 C.ar    1  UNL1        0.0000
     12 C           6.5244   -0.3334    1.4464 C.ar    1  UNL1        0.0000
     13 C           7.5668   -0.4071    0.5103 C.ar    1  UNL1        0.0000
     14 C           6.9327   -0.3680   -0.7383 C.ar    1  UNL1        0.0000
     15 O           5.5547   -0.2748   -0.6729 O.2     1  UNL1        0.0000
     16 C           5.3856   -0.2575    0.6802 C.ar    1  UNL1        0.0000
     17 C          -0.9094   -0.9730    0.3849 C.ar    1  UNL1        0.0000
     18 N          -1.1790   -2.2561    0.4866 N.ar    1  UNL1        0.0000
     19 C          -2.5476   -2.4468    0.5092 C.ar    1  UNL1        0.0000
     20 C          -3.3297   -1.3079    0.4178 C.ar    1  UNL1        0.0000
     21 S          -2.2842    0.0531    0.3188 S.2     1  UNL1        0.0000
     22 C          -4.7648   -1.2178    0.4266 C.ar    1  UNL1        0.0000
     23 S          -5.7823   -2.4594    1.1149 S.2     1  UNL1        0.0000
     24 C          -7.2583   -1.6299    0.7397 C.ar    1  UNL1        0.0000
     25 C          -6.9284   -0.4814    0.1185 C.ar    1  UNL1        0.0000
     26 C          -7.5330    0.6554   -0.4680 C.ar    1  UNL1        0.0000
     27 C          -6.4899    1.4744   -0.9473 C.ar    1  UNL1        0.0000
     28 N          -5.2403    0.9136   -0.6949 N.ar    1  UNL1        0.0000
     29 C          -5.5808   -0.2472   -0.0555 C.ar    1  UNL1        0.0000
     30 H           0.1287    1.0232   -3.0321 H       1  UNL1        0.0000
     31 H          -0.5194    2.7115   -1.3093 H       1  UNL1        0.0000
     32 H           2.4981    3.2114   -2.4630 H       1  UNL1        0.0000
     33 H           4.0733    2.0510   -0.7676 H       1  UNL1        0.0000
     34 H           7.0316   -0.3704    3.6008 H       1  UNL1        0.0000
     35 H           8.6311   -0.4820    0.6810 H       1  UNL1        0.0000
     36 H           7.3206   -0.3994   -1.7486 H       1  UNL1        0.0000
     37 H          -2.9235   -3.4601    0.5905 H       1  UNL1        0.0000
     38 H          -8.2242   -2.0422    0.9937 H       1  UNL1        0.0000
     39 H          -8.5891    0.8767   -0.5485 H       1  UNL1        0.0000
     40 H          -6.5424    2.4285   -1.4568 H       1  UNL1        0.0000
     41 H          -4.3094    1.2514   -0.9078 H       1  UNL1        0.0000
@<TRIPOS>BOND
     1     1     2    1
     2     2     3    2
     3     3     4    1
     4     4     5   ar
     5     5     6   ar
     6     6     7   ar
     7     7     8   ar
     8     8     9    1
     9     9    10   ar
    10    10    11   ar
    11    11    12   ar
    12    12    13   ar
    13    13    14   ar
    14    14    15   ar
    15    15    16   ar
    16     6    17    1
    17    17    18   ar
    18    18    19   ar
    19    19    20   ar
    20    20    21   ar
    21    20    22    1
    22    22    23   ar
    23    23    24   ar
    24    24    25   ar
    25    25    26   ar
    26    26    27   ar
    27    27    28   ar
    28    28    29   ar
    29     5     1    1
    30    16     9   ar
    31    21    17   ar
    32    29    22   ar
    33     8     4   ar
    34    16    12   ar
    35    29    25   ar
    36     1    30    1
    37     1    31    1
    38     2    32    1
    39     3    33    1
    40    11    34    1
    41    13    35    1
    42    14    36    1
    43    19    37    1
    44    24    38    1
    45    26    39    1
    46    27    40    1
    47    28    41    1
