@<TRIPOS>MOLECULE
*****
 39 44 0 0 0
SMALL
GASTEIGER

@<TRIPOS>ATOM
      1 SI          0.0952   -1.6329    2.7619 Si      1  UNL1        0.0000
      2 C          -1.6845   -1.9950    3.3345 C.2     1  UNL1        0.0000
      3 C          -2.5905   -1.4606    2.4881 C.2     1  UNL1        0.0000
      4 C          -2.0354   -0.7531    1.3694 C.ar    1  UNL1        0.0000
      5 C          -0.6123   -0.7023    1.2781 C.ar    1  UNL1        0.0000
      6 C          -0.1219   -0.0008    0.2124 C.ar    1  UNL1        0.0000
      7 S          -1.4593    0.6123   -0.7055 S.2     1  UNL1        0.0000
      8 C          -2.6454   -0.0745    0.3434 C.ar    1  UNL1        0.0000
      9 C          -4.0411    0.0944    0.0818 C.ar    1  UNL1        0.0000
     10 S          -5.0673   -1.2017   -0.4116 S.2     1  UNL1        0.0000
     11 C          -6.4607   -0.1917   -0.5050 C.ar    1  UNL1        0.0000
     12 C          -6.0915    1.0596   -0.1518 C.ar    1  UNL1        0.0000
     13 C          -6.7960    2.2818   -0.0371 C.ar    1  UNL1        0.0000
     14 C          -5.9725    3.3346    0.3785 C.ar    1  UNL1        0.0000
     15 S          -4.2833    2.9378    0.6680 S.2     1  UNL1        0.0000
     16 C          -4.7523    1.2601    0.1848 C.ar    1  UNL1        0.0000
     17 C           1.2304    0.2664   -0.1989 C.ar    1  UNL1        0.0000
     18 C           1.7466    1.4302   -0.7355 C.ar    1  UNL1        0.0000
     19 N           3.0904    1.4102   -1.0534 N.ar    1  UNL1        0.0000
     20 C           3.6088    0.2265   -0.7808 C.ar    1  UNL1        0.0000
     21 S           2.4817   -0.9031   -0.1189 S.2     1  UNL1        0.0000
     22 C           5.0125   -0.1656   -1.0220 C.ar    1  UNL1        0.0000
     23 C           5.7041   -1.0682   -0.2137 C.ar    1  UNL1        0.0000
     24 C           7.0302   -1.3712   -0.5194 C.ar    1  UNL1        0.0000
     25 C           7.6324   -0.7671   -1.6157 C.ar    1  UNL1        0.0000
     26 C           6.8818    0.1215   -2.3645 C.ar    1  UNL1        0.0000
     27 N           5.5964    0.4321   -2.0935 N.ar    1  UNL1        0.0000
     28 H           0.8030   -2.8889    2.4095 H       1  UNL1        0.0000
     29 H           0.8020   -0.7652    3.7362 H       1  UNL1        0.0000
     30 H          -1.8780   -2.5603    4.2319 H       1  UNL1        0.0000
     31 H          -3.6607   -1.5508    2.6383 H       1  UNL1        0.0000
     32 H          -7.4245   -0.5807   -0.8012 H       1  UNL1        0.0000
     33 H          -7.8515    2.4156   -0.2407 H       1  UNL1        0.0000
     34 H          -6.2684    4.3623    0.5401 H       1  UNL1        0.0000
     35 H           1.1856    2.3402   -0.9142 H       1  UNL1        0.0000
     36 H           5.2395   -1.5274    0.6521 H       1  UNL1        0.0000
     37 H           7.5889   -2.0698    0.0974 H       1  UNL1        0.0000
     38 H           8.6626   -0.9794   -1.8787 H       1  UNL1        0.0000
     39 H           7.3051    0.6247   -3.2294 H       1  UNL1        0.0000
@<TRIPOS>BOND
     1     1     2    1
     2     2     3    2
     3     3     4    1
     4     4     5   ar
     5     5     6   ar
     6     6     7   ar
     7     7     8   ar
     8     8     9    1
     9     9    10   ar
    10    10    11   ar
    11    11    12   ar
    12    12    13   ar
    13    13    14   ar
    14    14    15   ar
    15    15    16   ar
    16     6    17    1
    17    17    18   ar
    18    18    19   ar
    19    19    20   ar
    20    20    21   ar
    21    20    22    1
    22    22    23   ar
    23    23    24   ar
    24    24    25   ar
    25    25    26   ar
    26    26    27   ar
    27     5     1    1
    28    16     9   ar
    29    21    17   ar
    30    27    22   ar
    31     8     4   ar
    32    16    12   ar
    33     1    28    1
    34     1    29    1
    35     2    30    1
    36     3    31    1
    37    11    32    1
    38    13    33    1
    39    14    34    1
    40    18    35    1
    41    23    36    1
    42    24    37    1
    43    25    38    1
    44    26    39    1
