@<TRIPOS>MOLECULE
*****
 46 52 0 0 0
SMALL
GASTEIGER

@<TRIPOS>ATOM
      1 SI         -1.4409    0.6222    3.0825 Si      1  UNL1        0.0000
      2 C          -2.6483    2.0658    3.4603 C.2     1  UNL1        0.0000
      3 C          -3.0245    2.7017    2.3303 C.2     1  UNL1        0.0000
      4 C          -2.4563    2.1808    1.1200 C.ar    1  UNL1        0.0000
      5 C          -1.5841    1.0636    1.2497 C.ar    1  UNL1        0.0000
      6 C          -1.0706    0.5616    0.0828 C.ar    1  UNL1        0.0000
      7 S          -1.6845    1.5316   -1.2202 S.2     1  UNL1        0.0000
      8 C          -2.6098    2.5633   -0.1897 C.ar    1  UNL1        0.0000
      9 C          -3.3735    3.6537   -0.7237 C.ar    1  UNL1        0.0000
     10 S          -4.6401    3.4247   -1.8747 S.2     1  UNL1        0.0000
     11 C          -5.0153    5.1058   -1.9512 C.ar    1  UNL1        0.0000
     12 C          -4.1933    5.8140   -1.1226 C.ar    1  UNL1        0.0000
     13 S          -4.0977    7.5788   -0.7784 S.2     1  UNL1        0.0000
     14 C          -2.7780    7.1419    0.2996 C.ar    1  UNL1        0.0000
     15 C          -2.4629    5.7801    0.3735 C.ar    1  UNL1        0.0000
     16 C          -3.2954    4.9810   -0.4561 C.ar    1  UNL1        0.0000
     17 C          -0.1530   -0.5661   -0.1581 C.ar    1  UNL1        0.0000
     18 C           0.0894   -1.1206   -1.4118 C.ar    1  UNL1        0.0000
     19 C           0.9824   -2.1892   -1.5246 C.ar    1  UNL1        0.0000
     20 C           1.6258   -2.6916   -0.3924 C.ar    1  UNL1        0.0000
     21 C           1.3098   -2.0811    0.8177 C.ar    1  UNL1        0.0000
     22 N           0.4483   -1.0436    0.9594 N.ar    1  UNL1        0.0000
     23 C           2.5574   -3.8059   -0.4748 C.ar    1  UNL1        0.0000
     24 C           2.1800   -5.1180   -0.8681 C.ar    1  UNL1        0.0000
     25 C           3.0791   -6.2310   -0.9440 C.ar    1  UNL1        0.0000
     26 C           4.4536   -6.1538   -0.6398 C.ar    1  UNL1        0.0000
     27 C           4.8293   -4.8650   -0.2632 C.ar    1  UNL1        0.0000
     28 C           6.1231   -4.5471    0.0682 C.ar    1  UNL1        0.0000
     29 S           6.2726   -2.8827    0.4660 S.2     1  UNL1        0.0000
     30 C           4.6001   -2.5890    0.1899 C.ar    1  UNL1        0.0000
     31 C           3.9330   -3.7348   -0.1808 C.ar    1  UNL1        0.0000
     32 H          -2.0775   -0.6626    3.4710 H       1  UNL1        0.0000
     33 H          -0.1264    0.9180    3.7078 H       1  UNL1        0.0000
     34 H          -2.9505    2.2788    4.4727 H       1  UNL1        0.0000
     35 H          -3.7132    3.5391    2.3302 H       1  UNL1        0.0000
     36 H          -5.8002    5.4961   -2.5841 H       1  UNL1        0.0000
     37 H          -2.2920    7.9476    0.8330 H       1  UNL1        0.0000
     38 H          -1.6639    5.4012    0.9999 H       1  UNL1        0.0000
     39 H          -0.3995   -0.7486   -2.3055 H       1  UNL1        0.0000
     40 H           1.1770   -2.6189   -2.5049 H       1  UNL1        0.0000
     41 H           1.7554   -2.4242    1.7491 H       1  UNL1        0.0000
     42 H           1.1343   -5.3038   -1.1217 H       1  UNL1        0.0000
     43 H           2.6725   -7.1945   -1.2543 H       1  UNL1        0.0000
     44 H           5.1170   -7.0061   -0.7042 H       1  UNL1        0.0000
     45 H           6.9939   -5.1877    0.0970 H       1  UNL1        0.0000
     46 H           4.2174   -1.5855    0.3171 H       1  UNL1        0.0000
@<TRIPOS>BOND
     1     1     2    1
     2     2     3    2
     3     3     4    1
     4     4     5   ar
     5     5     6   ar
     6     6     7   ar
     7     7     8   ar
     8     8     9    1
     9     9    10   ar
    10    10    11   ar
    11    11    12   ar
    12    12    13   ar
    13    13    14   ar
    14    14    15   ar
    15    15    16   ar
    16     6    17    1
    17    17    18   ar
    18    18    19   ar
    19    19    20   ar
    20    20    21   ar
    21    21    22   ar
    22    20    23    1
    23    23    24   ar
    24    24    25   ar
    25    25    26   ar
    26    26    27   ar
    27    27    28   ar
    28    28    29   ar
    29    29    30   ar
    30    30    31   ar
    31     5     1    1
    32    16     9   ar
    33    22    17   ar
    34    31    23   ar
    35     8     4   ar
    36    16    12   ar
    37    31    27   ar
    38     1    32    1
    39     1    33    1
    40     2    34    1
    41     3    35    1
    42    11    36    1
    43    14    37    1
    44    15    38    1
    45    18    39    1
    46    19    40    1
    47    21    41    1
    48    24    42    1
    49    25    43    1
    50    26    44    1
    51    28    45    1
    52    30    46    1
