@<TRIPOS>MOLECULE
*****
 33 38 0 0 0
SMALL
GASTEIGER

@<TRIPOS>ATOM
      1 SI          4.0998    1.3176    0.8808 Si      1  UNL1        0.0000
      2 C           5.2290   -0.0653    0.2599 C.2     1  UNL1        0.0000
      3 C           4.5550   -1.0805   -0.3083 C.2     1  UNL1        0.0000
      4 C           3.1065   -0.8714   -0.3076 C.ar    1  UNL1        0.0000
      5 C           2.6063    0.3209    0.2660 C.ar    1  UNL1        0.0000
      6 C           1.2571    0.6765    0.3441 C.ar    1  UNL1        0.0000
      7 N           1.0051    1.8693    0.8866 N.ar    1  UNL1        0.0000
      8 C          -0.2702    2.3044    0.9793 C.ar    1  UNL1        0.0000
      9 C          -1.3978    1.6022    0.5976 C.ar    1  UNL1        0.0000
     10 C          -2.6821    2.2401    0.7882 C.ar    1  UNL1        0.0000
     11 C          -3.9243    1.6592    0.4918 C.ar    1  UNL1        0.0000
     12 C          -3.7322    0.3766    0.0239 C.ar    1  UNL1        0.0000
     13 C          -4.7586   -0.4743   -0.2942 C.ar    1  UNL1        0.0000
     14 N          -4.1793   -1.6615   -0.6621 N.ar    1  UNL1        0.0000
     15 C          -2.8056   -1.5671   -0.5640 C.ar    1  UNL1        0.0000
     16 C          -2.4754   -0.2879   -0.1846 C.ar    1  UNL1        0.0000
     17 C          -1.1753    0.2886    0.0518 C.ar    1  UNL1        0.0000
     18 C           0.2071   -0.1758   -0.1346 C.ar    1  UNL1        0.0000
     19 C           0.6835   -1.3975   -0.7851 C.ar    1  UNL1        0.0000
     20 N          -0.0506   -2.3299   -1.4144 N.ar    1  UNL1        0.0000
     21 S           0.9608   -3.5067   -1.9747 S.2     1  UNL1        0.0000
     22 N           2.4179   -2.9097   -1.4789 N.ar    1  UNL1        0.0000
     23 C           2.1624   -1.7461   -0.8586 C.ar    1  UNL1        0.0000
     24 H           4.3471    2.5645    0.1128 H       1  UNL1        0.0000
     25 H           4.1823    1.4214    2.3599 H       1  UNL1        0.0000
     26 H           6.2995    0.0097    0.3756 H       1  UNL1        0.0000
     27 H           5.0060   -1.9690   -0.7311 H       1  UNL1        0.0000
     28 H          -0.3508    3.3007    1.4114 H       1  UNL1        0.0000
     29 H          -2.7054    3.2517    1.2003 H       1  UNL1        0.0000
     30 H          -4.8737    2.1494    0.6488 H       1  UNL1        0.0000
     31 H          -5.8339   -0.3604   -0.2784 H       1  UNL1        0.0000
     32 H          -4.6808   -2.4969   -0.9346 H       1  UNL1        0.0000
     33 H          -2.2293   -2.4526   -0.7677 H       1  UNL1        0.0000
@<TRIPOS>BOND
     1     1     2    1
     2     2     3    2
     3     3     4    1
     4     4     5   ar
     5     5     6   ar
     6     6     7   ar
     7     7     8   ar
     8     8     9   ar
     9     9    10   ar
    10    10    11   ar
    11    11    12   ar
    12    12    13   ar
    13    13    14   ar
    14    14    15   ar
    15    15    16   ar
    16    16    17   ar
    17    17    18   ar
    18    18    19   ar
    19    19    20   ar
    20    20    21   ar
    21    21    22   ar
    22    22    23   ar
    23     5     1    1
    24    18     6   ar
    25    23    19   ar
    26    23     4   ar
    27    17     9   ar
    28    16    12   ar
    29     1    24    1
    30     1    25    1
    31     2    26    1
    32     3    27    1
    33     8    28    1
    34    10    29    1
    35    11    30    1
    36    13    31    1
    37    14    32    1
    38    15    33    1
