@<TRIPOS>MOLECULE
*****
 48 53 0 0 0
SMALL
GASTEIGER

@<TRIPOS>ATOM
      1 SI          8.0577    1.6965    2.3038 Si      1  UNL1        0.0000
      2 C           6.2953    1.8434    3.0252 C.2     1  UNL1        0.0000
      3 C           5.3998    1.1519    2.2864 C.2     1  UNL1        0.0000
      4 C           5.9456    0.4735    1.1441 C.ar    1  UNL1        0.0000
      5 C           7.3470    0.6059    0.9449 C.ar    1  UNL1        0.0000
      6 C           7.8423   -0.0626   -0.1300 C.ar    1  UNL1        0.0000
      7 S           6.5592   -0.8849   -0.9330 S.2     1  UNL1        0.0000
      8 C           5.3443   -0.3139    0.1843 C.ar    1  UNL1        0.0000
      9 C           3.9937   -0.6820   -0.0051 C.2     1  UNL1        0.0000
     10 SI          2.6338    0.5562   -0.4067 Si      1  UNL1        0.0000
     11 C           1.4277   -0.9138   -0.4558 C.2     1  UNL1        0.0000
     12 C           2.0839   -2.0659   -0.1878 C.2     1  UNL1        0.0000
     13 C           3.5146   -1.9389    0.0567 C.2     1  UNL1        0.0000
     14 C           0.0089   -0.7108   -0.7388 C.ar    1  UNL1        0.0000
     15 C          -0.7795   -1.7266   -1.2747 C.ar    1  UNL1        0.0000
     16 C          -2.1318   -1.4842   -1.5221 C.ar    1  UNL1        0.0000
     17 C          -2.6810   -0.2347   -1.2309 C.ar    1  UNL1        0.0000
     18 C          -1.8153    0.7196   -0.7057 C.ar    1  UNL1        0.0000
     19 N          -0.4986    0.5110   -0.4580 N.ar    1  UNL1        0.0000
     20 C          -4.0984    0.0601   -1.4726 C.ar    1  UNL1        0.0000
     21 C          -4.4847    0.4468   -2.7695 C.ar    1  UNL1        0.0000
     22 C          -5.8107    0.7486   -3.0619 C.ar    1  UNL1        0.0000
     23 C          -6.7748    0.6681   -2.0615 C.ar    1  UNL1        0.0000
     24 C          -6.4302    0.2831   -0.7574 C.ar    1  UNL1        0.0000
     25 C          -7.4187    0.2059    0.2381 C.ar    1  UNL1        0.0000
     26 C          -7.0996   -0.1778    1.5396 C.ar    1  UNL1        0.0000
     27 C          -5.7864   -0.4900    1.8634 C.ar    1  UNL1        0.0000
     28 C          -4.7919   -0.4174    0.8854 C.ar    1  UNL1        0.0000
     29 C          -5.0821   -0.0290   -0.4446 C.ar    1  UNL1        0.0000
     30 H           8.9601    0.9847    3.2433 H       1  UNL1        0.0000
     31 H           8.5499    3.0136    1.8286 H       1  UNL1        0.0000
     32 H           6.1069    2.4154    3.9193 H       1  UNL1        0.0000
     33 H           4.3469    1.1005    2.5394 H       1  UNL1        0.0000
     34 H           8.8571   -0.1310   -0.4978 H       1  UNL1        0.0000
     35 H           2.8316    1.1850   -1.7411 H       1  UNL1        0.0000
     36 H           2.4018    1.4845    0.7339 H       1  UNL1        0.0000
     37 H           1.6186   -3.0426   -0.1365 H       1  UNL1        0.0000
     38 H           4.1181   -2.8131    0.2711 H       1  UNL1        0.0000
     39 H          -0.3614   -2.6992   -1.5102 H       1  UNL1        0.0000
     40 H          -2.7529   -2.2741   -1.9385 H       1  UNL1        0.0000
     41 H          -2.1695    1.7175   -0.4569 H       1  UNL1        0.0000
     42 H          -3.7411    0.5174   -3.5619 H       1  UNL1        0.0000
     43 H          -6.0930    1.0474   -4.0681 H       1  UNL1        0.0000
     44 H          -7.8067    0.9087   -2.3096 H       1  UNL1        0.0000
     45 H          -8.4542    0.4454    0.0047 H       1  UNL1        0.0000
     46 H          -7.8768   -0.2331    2.2974 H       1  UNL1        0.0000
     47 H          -5.5301   -0.7917    2.8760 H       1  UNL1        0.0000
     48 H          -3.7753   -0.6736    1.1785 H       1  UNL1        0.0000
@<TRIPOS>BOND
     1     1     2    1
     2     2     3    2
     3     3     4    1
     4     4     5   ar
     5     5     6   ar
     6     6     7   ar
     7     7     8   ar
     8     8     9    1
     9     9    10    1
    10    10    11    1
    11    11    12    2
    12    12    13    1
    13    11    14    1
    14    14    15   ar
    15    15    16   ar
    16    16    17   ar
    17    17    18   ar
    18    18    19   ar
    19    17    20    1
    20    20    21   ar
    21    21    22   ar
    22    22    23   ar
    23    23    24   ar
    24    24    25   ar
    25    25    26   ar
    26    26    27   ar
    27    27    28   ar
    28    28    29   ar
    29     5     1    1
    30    13     9    2
    31    19    14   ar
    32    29    20   ar
    33     8     4   ar
    34    29    24   ar
    35     1    30    1
    36     1    31    1
    37     2    32    1
    38     3    33    1
    39     6    34    1
    40    10    35    1
    41    10    36    1
    42    12    37    1
    43    13    38    1
    44    15    39    1
    45    16    40    1
    46    18    41    1
    47    21    42    1
    48    22    43    1
    49    23    44    1
    50    25    45    1
    51    26    46    1
    52    27    47    1
    53    28    48    1
