@<TRIPOS>MOLECULE
*****
 42 47 0 0 0
SMALL
GASTEIGER

@<TRIPOS>ATOM
      1 SI         -7.6709   -0.1267   -0.1189 Si      1  UNL1        0.0000
      2 C          -6.7560    0.8303   -1.4916 C.2     1  UNL1        0.0000
      3 C          -5.4342    0.9311   -1.2288 C.2     1  UNL1        0.0000
      4 C          -5.0038    0.3185   -0.0028 C.ar    1  UNL1        0.0000
      5 C          -6.0183   -0.3272    0.7602 C.ar    1  UNL1        0.0000
      6 C          -5.5910   -0.9288    1.9019 C.ar    1  UNL1        0.0000
      7 S          -3.8901   -0.7092    2.0584 S.2     1  UNL1        0.0000
      8 C          -3.7638    0.2158    0.5889 C.ar    1  UNL1        0.0000
      9 C          -2.4948    0.7432    0.1665 C.ar    1  UNL1        0.0000
     10 C          -2.1862    1.8787   -0.5553 C.ar    1  UNL1        0.0000
     11 C          -0.7774    1.9317   -0.7002 C.ar    1  UNL1        0.0000
     12 C          -0.2384    0.8291   -0.0628 C.ar    1  UNL1        0.0000
     13 N          -1.3000    0.1308    0.4679 N.ar    1  UNL1        0.0000
     14 C           1.1343    0.4001    0.1068 C.ar    1  UNL1        0.0000
     15 C           1.6941   -0.0259    1.3302 C.ar    1  UNL1        0.0000
     16 C           3.0643   -0.4431    1.4817 C.ar    1  UNL1        0.0000
     17 C           4.0425   -0.4919    0.4377 C.ar    1  UNL1        0.0000
     18 C           5.4277   -0.9235    0.6348 C.ar    1  UNL1        0.0000
     19 N           5.7622   -1.3391    1.8631 N.ar    1  UNL1        0.0000
     20 C           7.0297   -1.7198    2.0035 C.ar    1  UNL1        0.0000
     21 N           7.9571   -1.7191    1.0520 N.ar    1  UNL1        0.0000
     22 C           7.5142   -1.2870   -0.1240 C.ar    1  UNL1        0.0000
     23 N           6.2760   -0.8800   -0.3954 N.ar    1  UNL1        0.0000
     24 C           3.4498   -0.0691   -0.7646 C.ar    1  UNL1        0.0000
     25 C           4.0085    0.0253   -2.0161 C.ar    1  UNL1        0.0000
     26 O           3.0796    0.4598   -2.9187 O.2     1  UNL1        0.0000
     27 C           1.9088    0.6486   -2.2444 C.ar    1  UNL1        0.0000
     28 C           2.0827    0.3513   -0.9168 C.ar    1  UNL1        0.0000
     29 H          -8.6328    0.7492    0.5953 H       1  UNL1        0.0000
     30 H          -8.2359   -1.3974   -0.6372 H       1  UNL1        0.0000
     31 H          -7.2842    1.2080   -2.3521 H       1  UNL1        0.0000
     32 H          -4.7431    1.4232   -1.9020 H       1  UNL1        0.0000
     33 H          -6.1489   -1.4811    2.6458 H       1  UNL1        0.0000
     34 H          -2.8922    2.6093   -0.9266 H       1  UNL1        0.0000
     35 H          -0.2148    2.7077   -1.2040 H       1  UNL1        0.0000
     36 H          -1.2232   -0.7312    0.9898 H       1  UNL1        0.0000
     37 H           1.0712   -0.0251    2.2255 H       1  UNL1        0.0000
     38 H           3.3725   -0.7409    2.4874 H       1  UNL1        0.0000
     39 H           7.3337   -2.0625    2.9868 H       1  UNL1        0.0000
     40 H           8.2285   -1.2635   -0.9401 H       1  UNL1        0.0000
     41 H           4.9864   -0.1682   -2.4334 H       1  UNL1        0.0000
     42 H           1.0765    0.9818   -2.8480 H       1  UNL1        0.0000
@<TRIPOS>BOND
     1     1     2    1
     2     2     3    2
     3     3     4    1
     4     4     5   ar
     5     5     6   ar
     6     6     7   ar
     7     7     8   ar
     8     8     9    1
     9     9    10   ar
    10    10    11   ar
    11    11    12   ar
    12    12    13   ar
    13    12    14    1
    14    14    15   ar
    15    15    16   ar
    16    16    17   ar
    17    17    18    1
    18    18    19   ar
    19    19    20   ar
    20    20    21   ar
    21    21    22   ar
    22    22    23   ar
    23    17    24   ar
    24    24    25   ar
    25    25    26   ar
    26    26    27   ar
    27    27    28   ar
    28     5     1    1
    29    13     9   ar
    30    28    14   ar
    31     8     4   ar
    32    23    18   ar
    33    28    24   ar
    34     1    29    1
    35     1    30    1
    36     2    31    1
    37     3    32    1
    38     6    33    1
    39    10    34    1
    40    11    35    1
    41    13    36    1
    42    15    37    1
    43    16    38    1
    44    20    39    1
    45    22    40    1
    46    25    41    1
    47    27    42    1
