@<TRIPOS>MOLECULE
*****
 45 50 0 0 0
SMALL
GASTEIGER

@<TRIPOS>ATOM
      1 SI         -7.5555    1.1443   -0.3864 Si      1  UNL1        0.0000
      2 C          -6.1231    1.5737   -1.5792 C.2     1  UNL1        0.0000
      3 C          -4.9254    1.2383   -1.0507 C.2     1  UNL1        0.0000
      4 C          -4.9827    0.6457    0.2546 C.ar    1  UNL1        0.0000
      5 C          -6.2745    0.4931    0.8274 C.ar    1  UNL1        0.0000
      6 C          -6.2900   -0.0594    2.0703 C.ar    1  UNL1        0.0000
      7 S          -4.6724   -0.4036    2.5645 S.2     1  UNL1        0.0000
      8 C          -3.9868    0.1906    1.0867 C.ar    1  UNL1        0.0000
      9 C          -2.5488    0.1488    0.9079 C.ar    1  UNL1        0.0000
     10 C          -1.6211    0.8965    1.6711 C.ar    1  UNL1        0.0000
     11 C          -0.1982    0.8575    1.4650 C.ar    1  UNL1        0.0000
     12 C           0.4542    0.0647    0.4807 C.ar    1  UNL1        0.0000
     13 C           1.8976    0.0262    0.2847 C.ar    1  UNL1        0.0000
     14 C           2.6047    1.1853   -0.0636 C.ar    1  UNL1        0.0000
     15 C           3.9935    1.1583   -0.2409 C.ar    1  UNL1        0.0000
     16 C           4.7158   -0.0293   -0.0662 C.ar    1  UNL1        0.0000
     17 C           4.0120   -1.1894    0.2829 C.ar    1  UNL1        0.0000
     18 C           2.6235   -1.1603    0.4594 C.ar    1  UNL1        0.0000
     19 C           6.1713   -0.0832   -0.2590 C.ar    1  UNL1        0.0000
     20 C           6.9186   -1.0396   -0.9242 C.ar    1  UNL1        0.0000
     21 C           8.3178   -0.7699   -0.8901 C.ar    1  UNL1        0.0000
     22 C           8.6010    0.3814   -0.1924 C.ar    1  UNL1        0.0000
     23 S           7.1885    1.1267    0.4150 S.2     1  UNL1        0.0000
     24 C          -0.4846   -0.6660   -0.2629 C.ar    1  UNL1        0.0000
     25 C          -0.2409   -1.5201   -1.3124 C.ar    1  UNL1        0.0000
     26 N          -1.4563   -2.0151   -1.7319 N.ar    1  UNL1        0.0000
     27 C          -2.4756   -1.4807   -0.9755 C.ar    1  UNL1        0.0000
     28 C          -1.9043   -0.6256   -0.0633 C.ar    1  UNL1        0.0000
     29 H          -8.4303    0.0943   -0.9657 H       1  UNL1        0.0000
     30 H          -8.2553    2.3716    0.0684 H       1  UNL1        0.0000
     31 H          -6.3156    2.0290   -2.5370 H       1  UNL1        0.0000
     32 H          -3.9838    1.4014   -1.5632 H       1  UNL1        0.0000
     33 H          -7.1240   -0.2814    2.7219 H       1  UNL1        0.0000
     34 H          -1.9988    1.5469    2.4608 H       1  UNL1        0.0000
     35 H           0.4171    1.4750    2.1217 H       1  UNL1        0.0000
     36 H           2.0733    2.1235   -0.2124 H       1  UNL1        0.0000
     37 H           4.4995    2.0772   -0.5283 H       1  UNL1        0.0000
     38 H           4.5391   -2.1281    0.4381 H       1  UNL1        0.0000
     39 H           2.1080   -2.0751    0.7461 H       1  UNL1        0.0000
     40 H           6.4792   -1.8946   -1.4240 H       1  UNL1        0.0000
     41 H           9.0758   -1.3895   -1.3531 H       1  UNL1        0.0000
     42 H           9.5705    0.8228   -0.0067 H       1  UNL1        0.0000
     43 H           0.6734   -1.8264   -1.8022 H       1  UNL1        0.0000
     44 H          -1.5825   -2.6753   -2.4880 H       1  UNL1        0.0000
     45 H          -3.5037   -1.7602   -1.1630 H       1  UNL1        0.0000
@<TRIPOS>BOND
     1     1     2    1
     2     2     3    2
     3     3     4    1
     4     4     5   ar
     5     5     6   ar
     6     6     7   ar
     7     7     8   ar
     8     8     9    1
     9     9    10   ar
    10    10    11   ar
    11    11    12   ar
    12    12    13    1
    13    13    14   ar
    14    14    15   ar
    15    15    16   ar
    16    16    17   ar
    17    17    18   ar
    18    16    19    1
    19    19    20   ar
    20    20    21   ar
    21    21    22   ar
    22    22    23   ar
    23    12    24   ar
    24    24    25   ar
    25    25    26   ar
    26    26    27   ar
    27    27    28   ar
    28     5     1    1
    29    28     9   ar
    30     8     4   ar
    31    18    13   ar
    32    23    19   ar
    33    28    24   ar
    34     1    29    1
    35     1    30    1
    36     2    31    1
    37     3    32    1
    38     6    33    1
    39    10    34    1
    40    11    35    1
    41    14    36    1
    42    15    37    1
    43    17    38    1
    44    18    39    1
    45    20    40    1
    46    21    41    1
    47    22    42    1
    48    25    43    1
    49    26    44    1
    50    27    45    1
