@<TRIPOS>MOLECULE
*****
 46 52 0 0 0
SMALL
GASTEIGER

@<TRIPOS>ATOM
      1 SI         -7.9867    1.4637   -0.0117 Si      1  UNL1        0.0000
      2 C          -6.5035    2.2991   -0.8862 C.2     1  UNL1        0.0000
      3 C          -5.3414    1.6757   -0.5914 C.2     1  UNL1        0.0000
      4 C          -5.4646    0.5496    0.2884 C.ar    1  UNL1        0.0000
      5 C          -6.7746    0.2352    0.7402 C.ar    1  UNL1        0.0000
      6 C          -6.8525   -0.8331    1.5789 C.ar    1  UNL1        0.0000
      7 S          -5.2719   -1.4800    1.8309 S.2     1  UNL1        0.0000
      8 C          -4.5202   -0.3109    0.7958 C.ar    1  UNL1        0.0000
      9 C          -3.0841   -0.3638    0.5954 C.ar    1  UNL1        0.0000
     10 C          -2.1432   -0.0303    1.5953 C.ar    1  UNL1        0.0000
     11 C          -0.7274   -0.0605    1.3938 C.ar    1  UNL1        0.0000
     12 C          -0.0988   -0.4302    0.1755 C.ar    1  UNL1        0.0000
     13 C           1.3456   -0.4614    0.0005 C.ar    1  UNL1        0.0000
     14 C           2.1135    0.7037    0.0464 C.ar    1  UNL1        0.0000
     15 C           3.4990    0.6401   -0.1199 C.ar    1  UNL1        0.0000
     16 C           4.1027   -0.5966   -0.3255 C.ar    1  UNL1        0.0000
     17 N           3.3811   -1.7427   -0.3716 N.ar    1  UNL1        0.0000
     18 C           2.0395   -1.6508   -0.2041 C.ar    1  UNL1        0.0000
     19 C           5.5388   -0.7588   -0.5115 C.ar    1  UNL1        0.0000
     20 S           6.2557   -2.1206   -1.3272 S.2     1  UNL1        0.0000
     21 C           7.8820   -1.5420   -1.1154 C.ar    1  UNL1        0.0000
     22 C           7.8126   -0.3719   -0.4488 C.ar    1  UNL1        0.0000
     23 C           8.6569    0.6246    0.0625 C.ar    1  UNL1        0.0000
     24 C           7.7956    1.5562    0.6547 C.ar    1  UNL1        0.0000
     25 O           6.4550    1.2309    0.5594 O.2     1  UNL1        0.0000
     26 C           6.5461    0.0524   -0.1222 C.ar    1  UNL1        0.0000
     27 C          -1.0404   -0.7577   -0.8218 C.ar    1  UNL1        0.0000
     28 C          -0.7123   -1.1200   -2.1090 C.ar    1  UNL1        0.0000
     29 S          -2.1054   -1.4592   -3.0537 S.2     1  UNL1        0.0000
     30 C          -3.1648   -1.1076   -1.7505 C.ar    1  UNL1        0.0000
     31 C          -2.4776   -0.7263   -0.6203 C.ar    1  UNL1        0.0000
     32 H          -8.6077    2.3821    0.9748 H       1  UNL1        0.0000
     33 H          -8.9178    0.8661   -1.0006 H       1  UNL1        0.0000
     34 H          -6.6471    3.1588   -1.5206 H       1  UNL1        0.0000
     35 H          -4.3825    1.9948   -0.9845 H       1  UNL1        0.0000
     36 H          -7.7130   -1.2771    2.0608 H       1  UNL1        0.0000
     37 H          -2.5092    0.2714    2.5778 H       1  UNL1        0.0000
     38 H          -0.0969    0.2118    2.2427 H       1  UNL1        0.0000
     39 H           1.6402    1.6707    0.2018 H       1  UNL1        0.0000
     40 H           4.0791    1.5564   -0.0955 H       1  UNL1        0.0000
     41 H           1.5181   -2.6049   -0.2386 H       1  UNL1        0.0000
     42 H           8.7313   -2.0981   -1.4855 H       1  UNL1        0.0000
     43 H           9.7350    0.6866    0.0276 H       1  UNL1        0.0000
     44 H           7.9841    2.4856    1.1763 H       1  UNL1        0.0000
     45 H           0.2639   -1.2115   -2.5656 H       1  UNL1        0.0000
     46 H          -4.2323   -1.1993   -1.8987 H       1  UNL1        0.0000
@<TRIPOS>BOND
     1     1     2    1
     2     2     3    2
     3     3     4    1
     4     4     5   ar
     5     5     6   ar
     6     6     7   ar
     7     7     8   ar
     8     8     9    1
     9     9    10   ar
    10    10    11   ar
    11    11    12   ar
    12    12    13    1
    13    13    14   ar
    14    14    15   ar
    15    15    16   ar
    16    16    17   ar
    17    17    18   ar
    18    16    19    1
    19    19    20   ar
    20    20    21   ar
    21    21    22   ar
    22    22    23   ar
    23    23    24   ar
    24    24    25   ar
    25    25    26   ar
    26    12    27   ar
    27    27    28   ar
    28    28    29   ar
    29    29    30   ar
    30    30    31   ar
    31     5     1    1
    32    31     9   ar
    33     8     4   ar
    34    18    13   ar
    35    26    19   ar
    36    31    27   ar
    37    26    22   ar
    38     1    32    1
    39     1    33    1
    40     2    34    1
    41     3    35    1
    42     6    36    1
    43    10    37    1
    44    11    38    1
    45    14    39    1
    46    15    40    1
    47    18    41    1
    48    21    42    1
    49    23    43    1
    50    24    44    1
    51    28    45    1
    52    30    46    1
