@<TRIPOS>MOLECULE
*****
 45 51 0 0 0
SMALL
GASTEIGER

@<TRIPOS>ATOM
      1 SI          8.5419    0.1967   -0.4099 Si      1  UNL1        0.0000
      2 C           7.2410    1.2344   -1.3493 C.2     1  UNL1        0.0000
      3 C           5.9838    0.8911   -0.9917 C.2     1  UNL1        0.0000
      4 C           5.8940   -0.1532   -0.0116 C.ar    1  UNL1        0.0000
      5 C           7.1249   -0.6931    0.4521 C.ar    1  UNL1        0.0000
      6 C           7.0084   -1.6861    1.3740 C.ar    1  UNL1        0.0000
      7 S           5.3385   -1.9812    1.6884 S.2     1  UNL1        0.0000
      8 C           4.8069   -0.7571    0.5769 C.ar    1  UNL1        0.0000
      9 C           3.3784   -0.5294    0.4078 C.ar    1  UNL1        0.0000
     10 C           2.4974   -1.5234   -0.0627 C.ar    1  UNL1        0.0000
     11 C           1.1098   -1.3108   -0.2338 C.ar    1  UNL1        0.0000
     12 C           0.4650   -0.0848    0.0496 C.ar    1  UNL1        0.0000
     13 C          -0.9686    0.1354   -0.1332 C.ar    1  UNL1        0.0000
     14 C          -1.6570    1.2517   -0.5702 C.ar    1  UNL1        0.0000
     15 N          -3.0318    1.1353   -0.6373 N.ar    1  UNL1        0.0000
     16 C          -3.4111   -0.0619   -0.2369 C.ar    1  UNL1        0.0000
     17 S          -2.1119   -1.0965    0.2293 S.2     1  UNL1        0.0000
     18 C          -4.7901   -0.5334   -0.1610 C.ar    1  UNL1        0.0000
     19 C          -5.2291   -1.8744   -0.3515 C.ar    1  UNL1        0.0000
     20 C          -6.6027   -2.3036   -0.2724 C.ar    1  UNL1        0.0000
     21 C          -7.6880   -1.4439    0.0042 C.ar    1  UNL1        0.0000
     22 C          -7.2429   -0.1418    0.1837 C.ar    1  UNL1        0.0000
     23 C          -8.0372    0.9386    0.4686 C.ar    1  UNL1        0.0000
     24 N          -7.2024    2.0305    0.5706 N.ar    1  UNL1        0.0000
     25 C          -5.8936    1.6521    0.3601 C.ar    1  UNL1        0.0000
     26 C          -5.8848    0.3010    0.1064 C.ar    1  UNL1        0.0000
     27 C           1.3083    0.9647    0.5270 C.ar    1  UNL1        0.0000
     28 N           0.9375    2.2139    0.8641 N.ar    1  UNL1        0.0000
     29 S           2.2964    3.0098    1.3709 S.2     1  UNL1        0.0000
     30 N           3.4354    1.8282    1.1755 N.ar    1  UNL1        0.0000
     31 C           2.8009    0.7360    0.7121 C.ar    1  UNL1        0.0000
     32 H           9.3115   -0.6620   -1.3446 H       1  UNL1        0.0000
     33 H           9.3616    1.0485    0.4873 H       1  UNL1        0.0000
     34 H           7.5399    1.9904   -2.0571 H       1  UNL1        0.0000
     35 H           5.1034    1.3704   -1.4036 H       1  UNL1        0.0000
     36 H           7.7751   -2.2553    1.8819 H       1  UNL1        0.0000
     37 H           2.8989   -2.5059   -0.3170 H       1  UNL1        0.0000
     38 H           0.5232   -2.1469   -0.6176 H       1  UNL1        0.0000
     39 H          -1.2029    2.1904   -0.8656 H       1  UNL1        0.0000
     40 H          -4.4928   -2.6436   -0.5864 H       1  UNL1        0.0000
     41 H          -6.8145   -3.3603   -0.4402 H       1  UNL1        0.0000
     42 H          -8.7146   -1.7748    0.0618 H       1  UNL1        0.0000
     43 H          -9.1042    1.0437    0.6087 H       1  UNL1        0.0000
     44 H          -7.5031    2.9750    0.7725 H       1  UNL1        0.0000
     45 H          -5.0988    2.3854    0.4046 H       1  UNL1        0.0000
@<TRIPOS>BOND
     1     1     2    1
     2     2     3    2
     3     3     4    1
     4     4     5   ar
     5     5     6   ar
     6     6     7   ar
     7     7     8   ar
     8     8     9    1
     9     9    10   ar
    10    10    11   ar
    11    11    12   ar
    12    12    13    1
    13    13    14   ar
    14    14    15   ar
    15    15    16   ar
    16    16    17   ar
    17    16    18    1
    18    18    19   ar
    19    19    20   ar
    20    20    21   ar
    21    21    22   ar
    22    22    23   ar
    23    23    24   ar
    24    24    25   ar
    25    25    26   ar
    26    12    27   ar
    27    27    28   ar
    28    28    29   ar
    29    29    30   ar
    30    30    31   ar
    31     5     1    1
    32    31     9   ar
    33     8     4   ar
    34    17    13   ar
    35    26    18   ar
    36    31    27   ar
    37    26    22   ar
    38     1    32    1
    39     1    33    1
    40     2    34    1
    41     3    35    1
    42     6    36    1
    43    10    37    1
    44    11    38    1
    45    14    39    1
    46    19    40    1
    47    20    41    1
    48    21    42    1
    49    23    43    1
    50    24    44    1
    51    25    45    1
