@<TRIPOS>MOLECULE
*****
 24 27 0 0 0
SMALL
GASTEIGER

@<TRIPOS>ATOM
      1 SI         -0.1903   -1.3971    0.7650 Si      1  UNL1        0.0000
      2 C          -1.3985   -0.0977    0.0600 C.2     1  UNL1        0.0000
      3 C          -0.7337    0.9914   -0.4015 C.2     1  UNL1        0.0000
      4 C           0.6769    0.8670   -0.2343 C.ar    1  UNL1        0.0000
      5 O           1.6741    1.7440   -0.5703 O.2     1  UNL1        0.0000
      6 C           2.8264    1.1180   -0.1869 C.ar    1  UNL1        0.0000
      7 C           4.2051    1.3848   -0.2063 C.ar    1  UNL1        0.0000
      8 C           4.7644    0.2551    0.3686 C.ar    1  UNL1        0.0000
      9 N           3.7752   -0.6448    0.7162 N.ar    1  UNL1        0.0000
     10 C           2.5732   -0.0948    0.3647 C.ar    1  UNL1        0.0000
     11 C           1.2003   -0.2760    0.3442 C.ar    1  UNL1        0.0000
     12 C          -2.8118   -0.2163    0.0068 C.ar    1  UNL1        0.0000
     13 N          -3.6220    0.7051   -0.4905 N.ar    1  UNL1        0.0000
     14 C          -4.9421    0.3149   -0.4084 C.ar    1  UNL1        0.0000
     15 C          -5.1577   -0.9181    0.1568 C.ar    1  UNL1        0.0000
     16 S          -3.6624   -1.6136    0.6004 S.2     1  UNL1        0.0000
     17 H          -0.2039   -2.6578   -0.0213 H       1  UNL1        0.0000
     18 H          -0.3769   -1.6001    2.2250 H       1  UNL1        0.0000
     19 H          -1.1885    1.8664   -0.8486 H       1  UNL1        0.0000
     20 H           4.7158    2.2601   -0.5791 H       1  UNL1        0.0000
     21 H           5.8007    0.0106    0.5636 H       1  UNL1        0.0000
     22 H           3.8855   -1.5520    1.1518 H       1  UNL1        0.0000
     23 H          -5.7139    0.9775   -0.7806 H       1  UNL1        0.0000
     24 H          -6.0957   -1.4269    0.3244 H       1  UNL1        0.0000
@<TRIPOS>BOND
     1     1     2    1
     2     2     3    2
     3     3     4    1
     4     4     5   ar
     5     5     6   ar
     6     6     7   ar
     7     7     8   ar
     8     8     9   ar
     9     9    10   ar
    10    10    11   ar
    11     2    12    1
    12    12    13   ar
    13    13    14   ar
    14    14    15   ar
    15    15    16   ar
    16    11     1    1
    17    16    12   ar
    18    11     4   ar
    19    10     6   ar
    20     1    17    1
    21     1    18    1
    22     3    19    1
    23     7    20    1
    24     8    21    1
    25     9    22    1
    26    14    23    1
    27    15    24    1
