@<TRIPOS>MOLECULE
*****
 45 51 0 0 0
SMALL
GASTEIGER

@<TRIPOS>ATOM
      1 SI         -8.0433    0.2559   -0.8478 Si      1  UNL1        0.0000
      2 C          -6.6142    1.5196   -0.8672 C.2     1  UNL1        0.0000
      3 C          -5.4878    1.0022   -0.3288 C.2     1  UNL1        0.0000
      4 C          -5.5971   -0.3543    0.1314 C.ar    1  UNL1        0.0000
      5 C          -6.8724   -0.9675   -0.0261 C.ar    1  UNL1        0.0000
      6 C          -6.9628   -2.2426    0.4375 C.ar    1  UNL1        0.0000
      7 S          -5.4433   -2.7191    1.0968 S.2     1  UNL1        0.0000
      8 C          -4.6855   -1.1984    0.7269 C.ar    1  UNL1        0.0000
      9 C          -3.2983   -0.9825    1.0504 C.ar    1  UNL1        0.0000
     10 C          -2.6712   -1.2388    2.2537 C.ar    1  UNL1        0.0000
     11 C          -1.2820   -0.9157    2.2249 C.ar    1  UNL1        0.0000
     12 C          -0.8781   -0.4202    0.9994 C.ar    1  UNL1        0.0000
     13 S          -2.1877   -0.3817   -0.1057 S.2     1  UNL1        0.0000
     14 C           0.4500   -0.0057    0.6151 C.ar    1  UNL1        0.0000
     15 S           1.8182   -0.9599    1.0530 S.2     1  UNL1        0.0000
     16 C           2.9341    0.0858    0.2694 C.ar    1  UNL1        0.0000
     17 C           4.3489   -0.2465    0.2946 C.ar    1  UNL1        0.0000
     18 C           5.1227   -0.3131    1.4806 C.ar    1  UNL1        0.0000
     19 C           6.5168   -0.6408    1.5082 C.ar    1  UNL1        0.0000
     20 C           7.2795   -0.9369    0.3584 C.ar    1  UNL1        0.0000
     21 C           6.5144   -0.8728   -0.8065 C.ar    1  UNL1        0.0000
     22 C           7.0445   -1.1295   -2.0467 C.ar    1  UNL1        0.0000
     23 S           5.8528   -0.9814   -3.2753 S.2     1  UNL1        0.0000
     24 C           4.6256   -0.5736   -2.1408 C.ar    1  UNL1        0.0000
     25 C           5.1083   -0.5412   -0.8523 C.ar    1  UNL1        0.0000
     26 C           2.2800    1.1564   -0.2983 C.ar    1  UNL1        0.0000
     27 N           2.9209    2.1578   -0.9699 N.ar    1  UNL1        0.0000
     28 C           2.0412    3.0913   -1.4174 C.ar    1  UNL1        0.0000
     29 C           0.6581    3.0502   -1.2214 C.ar    1  UNL1        0.0000
     30 N          -0.0085    2.0706   -0.5562 N.ar    1  UNL1        0.0000
     31 C           0.8471    1.1077   -0.0983 C.ar    1  UNL1        0.0000
     32 H          -8.4441   -0.1215   -2.2259 H       1  UNL1        0.0000
     33 H          -9.1494    0.7139    0.0296 H       1  UNL1        0.0000
     34 H          -6.7535    2.5104   -1.2685 H       1  UNL1        0.0000
     35 H          -4.5679    1.5693   -0.2419 H       1  UNL1        0.0000
     36 H          -7.8043   -2.9219    0.4417 H       1  UNL1        0.0000
     37 H          -3.1840   -1.6335    3.1228 H       1  UNL1        0.0000
     38 H          -0.6186   -1.0371    3.0729 H       1  UNL1        0.0000
     39 H           4.6400   -0.0963    2.4344 H       1  UNL1        0.0000
     40 H           7.0164   -0.6605    2.4775 H       1  UNL1        0.0000
     41 H           8.3322   -1.1829    0.4019 H       1  UNL1        0.0000
     42 H           8.0583   -1.3977   -2.3096 H       1  UNL1        0.0000
     43 H           3.6250   -0.3770   -2.4994 H       1  UNL1        0.0000
     44 H           2.4906    3.9161   -1.9634 H       1  UNL1        0.0000
     45 H           0.0282    3.8434   -1.6144 H       1  UNL1        0.0000
@<TRIPOS>BOND
     1     1     2    1
     2     2     3    2
     3     3     4    1
     4     4     5   ar
     5     5     6   ar
     6     6     7   ar
     7     7     8   ar
     8     8     9    1
     9     9    10   ar
    10    10    11   ar
    11    11    12   ar
    12    12    13   ar
    13    12    14    1
    14    14    15   ar
    15    15    16   ar
    16    16    17    1
    17    17    18   ar
    18    18    19   ar
    19    19    20   ar
    20    20    21   ar
    21    21    22   ar
    22    22    23   ar
    23    23    24   ar
    24    24    25   ar
    25    16    26   ar
    26    26    27   ar
    27    27    28   ar
    28    28    29   ar
    29    29    30   ar
    30    30    31   ar
    31     5     1    1
    32    13     9   ar
    33    31    14   ar
    34     8     4   ar
    35    25    17   ar
    36    31    26   ar
    37    25    21   ar
    38     1    32    1
    39     1    33    1
    40     2    34    1
    41     3    35    1
    42     6    36    1
    43    10    37    1
    44    11    38    1
    45    18    39    1
    46    19    40    1
    47    20    41    1
    48    22    42    1
    49    24    43    1
    50    28    44    1
    51    29    45    1
