@<TRIPOS>MOLECULE
*****
 44 50 0 0 0
SMALL
GASTEIGER

@<TRIPOS>ATOM
      1 SI         -8.1992   -0.0576   -0.7723 Si      1  UNL1        0.0000
      2 C          -6.8053    0.2981   -2.0299 C.2     1  UNL1        0.0000
      3 C          -5.5860    0.2210   -1.4523 C.2     1  UNL1        0.0000
      4 C          -5.5930   -0.1026   -0.0536 C.ar    1  UNL1        0.0000
      5 C          -6.8712   -0.3071    0.5373 C.ar    1  UNL1        0.0000
      6 C          -6.8517   -0.6321    1.8574 C.ar    1  UNL1        0.0000
      7 S          -5.2187   -0.6970    2.4056 S.2     1  UNL1        0.0000
      8 C          -4.5679   -0.2729    0.8502 C.ar    1  UNL1        0.0000
      9 C          -3.1278   -0.1571    0.7062 C.ar    1  UNL1        0.0000
     10 N          -2.3463   -1.2059    1.1024 N.ar    1  UNL1        0.0000
     11 C          -0.9805   -1.1461    0.9920 C.ar    1  UNL1        0.0000
     12 C          -0.1959   -0.1013    0.4811 C.ar    1  UNL1        0.0000
     13 C           1.2595   -0.1259    0.3848 C.ar    1  UNL1        0.0000
     14 C           1.9720    0.2172   -0.7868 C.ar    1  UNL1        0.0000
     15 C           3.3842    0.1975   -0.8905 C.ar    1  UNL1        0.0000
     16 C           4.2517   -0.1707    0.1643 C.ar    1  UNL1        0.0000
     17 C           5.7113   -0.1761    0.0274 C.ar    1  UNL1        0.0000
     18 C           6.3986    0.9045   -0.5439 C.ar    1  UNL1        0.0000
     19 C           7.7857    0.8691   -0.6826 C.ar    1  UNL1        0.0000
     20 C           8.4600   -0.2577   -0.2484 C.ar    1  UNL1        0.0000
     21 N           7.8492   -1.3247    0.3034 N.ar    1  UNL1        0.0000
     22 C           6.5001   -1.2551    0.4330 C.ar    1  UNL1        0.0000
     23 C           3.5940   -0.5307    1.3792 C.ar    1  UNL1        0.0000
     24 N           4.1838   -0.9092    2.5273 N.ar    1  UNL1        0.0000
     25 S           2.9829   -1.1960    3.6272 S.2     1  UNL1        0.0000
     26 N           1.6445   -0.8728    2.7094 N.ar    1  UNL1        0.0000
     27 C           2.0782   -0.5077    1.4893 C.ar    1  UNL1        0.0000
     28 C          -0.9806    1.0075    0.0613 C.ar    1  UNL1        0.0000
     29 N          -0.5188    2.1605   -0.4602 N.ar    1  UNL1        0.0000
     30 S          -1.8314    3.1262   -0.7507 S.2     1  UNL1        0.0000
     31 N          -3.0574    2.1308   -0.2621 N.ar    1  UNL1        0.0000
     32 C          -2.4910    0.9901    0.1751 C.ar    1  UNL1        0.0000
     33 H          -8.9361   -1.2944   -1.1330 H       1  UNL1        0.0000
     34 H          -9.0439    1.1440   -0.5602 H       1  UNL1        0.0000
     35 H          -7.0324    0.5266   -3.0586 H       1  UNL1        0.0000
     36 H          -4.6677    0.3912   -2.0018 H       1  UNL1        0.0000
     37 H          -7.6693   -0.8404    2.5340 H       1  UNL1        0.0000
     38 H          -0.4958   -2.0550    1.3536 H       1  UNL1        0.0000
     39 H           1.4121    0.5164   -1.6758 H       1  UNL1        0.0000
     40 H           3.8170    0.4754   -1.8540 H       1  UNL1        0.0000
     41 H           5.8611    1.7907   -0.8735 H       1  UNL1        0.0000
     42 H           8.3256    1.7031   -1.1165 H       1  UNL1        0.0000
     43 H           9.5401   -0.3339   -0.3339 H       1  UNL1        0.0000
     44 H           6.0563   -2.1402    0.8832 H       1  UNL1        0.0000
@<TRIPOS>BOND
     1     1     2    1
     2     2     3    2
     3     3     4    1
     4     4     5   ar
     5     5     6   ar
     6     6     7   ar
     7     7     8   ar
     8     8     9    1
     9     9    10   ar
    10    10    11   ar
    11    11    12   ar
    12    12    13    1
    13    13    14   ar
    14    14    15   ar
    15    15    16   ar
    16    16    17    1
    17    17    18   ar
    18    18    19   ar
    19    19    20   ar
    20    20    21   ar
    21    21    22   ar
    22    16    23   ar
    23    23    24   ar
    24    24    25   ar
    25    25    26   ar
    26    26    27   ar
    27    12    28   ar
    28    28    29   ar
    29    29    30   ar
    30    30    31   ar
    31    31    32   ar
    32     5     1    1
    33    32     9   ar
    34     8     4   ar
    35    27    13   ar
    36    32    28   ar
    37    22    17   ar
    38    27    23   ar
    39     1    33    1
    40     1    34    1
    41     2    35    1
    42     3    36    1
    43     6    37    1
    44    11    38    1
    45    14    39    1
    46    15    40    1
    47    18    41    1
    48    19    42    1
    49    20    43    1
    50    22    44    1
