@<TRIPOS>MOLECULE
*****
 43 48 0 0 0
SMALL
GASTEIGER

@<TRIPOS>ATOM
      1 SI          8.1091    0.3771   -0.5039 Si      1  UNL1        0.0000
      2 C           6.9175    1.4445   -1.5368 C.2     1  UNL1        0.0000
      3 C           5.6264    1.1505   -1.2666 C.2     1  UNL1        0.0000
      4 C           5.4220    0.1221   -0.2829 C.ar    1  UNL1        0.0000
      5 C           6.6038   -0.4474    0.2717 C.ar    1  UNL1        0.0000
      6 C           6.3971   -1.4194    1.1979 C.ar    1  UNL1        0.0000
      7 S           4.7054   -1.6535    1.4075 S.2     1  UNL1        0.0000
      8 C           4.2696   -0.4357    0.2374 C.ar    1  UNL1        0.0000
      9 C           2.8908   -0.1150   -0.0736 C.ar    1  UNL1        0.0000
     10 N           2.5648    0.9346   -0.8062 N.ar    1  UNL1        0.0000
     11 C           1.1941    1.0086   -0.9564 C.ar    1  UNL1        0.0000
     12 C           0.4718    0.0115   -0.3366 C.ar    1  UNL1        0.0000
     13 S           1.5448   -1.0583    0.4582 S.2     1  UNL1        0.0000
     14 C          -0.9730   -0.2126   -0.2986 C.ar    1  UNL1        0.0000
     15 C          -1.5054   -1.1291   -1.2115 C.ar    1  UNL1        0.0000
     16 C          -2.8722   -1.3761   -1.2411 C.ar    1  UNL1        0.0000
     17 C          -3.7568   -0.7189   -0.3641 C.ar    1  UNL1        0.0000
     18 C          -5.1875   -1.0624   -0.4559 C.ar    1  UNL1        0.0000
     19 N          -5.7499   -1.0085   -1.6690 N.ar    1  UNL1        0.0000
     20 C          -7.0304   -1.3671   -1.6995 C.ar    1  UNL1        0.0000
     21 N          -7.7563   -1.7735   -0.6611 N.ar    1  UNL1        0.0000
     22 C          -7.0840   -1.8043    0.4864 C.ar    1  UNL1        0.0000
     23 N          -5.8089   -1.4648    0.6571 N.ar    1  UNL1        0.0000
     24 C          -3.2324    0.2354    0.5631 C.ar    1  UNL1        0.0000
     25 C          -4.0531    0.9746    1.4535 C.ar    1  UNL1        0.0000
     26 C          -3.5335    1.8997    2.3596 C.ar    1  UNL1        0.0000
     27 C          -2.1695    2.1225    2.4040 C.ar    1  UNL1        0.0000
     28 C          -1.3314    1.4263    1.5354 C.ar    1  UNL1        0.0000
     29 C          -1.8279    0.4840    0.5991 C.ar    1  UNL1        0.0000
     30 H           8.9098   -0.5248   -1.3695 H       1  UNL1        0.0000
     31 H           8.8952    1.2093    0.4404 H       1  UNL1        0.0000
     32 H           7.2884    2.1785   -2.2342 H       1  UNL1        0.0000
     33 H           4.7980    1.6536   -1.7535 H       1  UNL1        0.0000
     34 H           7.1114   -2.0030    1.7625 H       1  UNL1        0.0000
     35 H           0.7685    1.8202   -1.5351 H       1  UNL1        0.0000
     36 H          -0.8563   -1.6607   -1.9045 H       1  UNL1        0.0000
     37 H          -3.2580   -2.1005   -1.9582 H       1  UNL1        0.0000
     38 H          -7.5296   -1.3245   -2.6614 H       1  UNL1        0.0000
     39 H          -7.6241   -2.1400    1.3647 H       1  UNL1        0.0000
     40 H          -5.1324    0.8384    1.4567 H       1  UNL1        0.0000
     41 H          -4.1992    2.4393    3.0278 H       1  UNL1        0.0000
     42 H          -1.7521    2.8367    3.1085 H       1  UNL1        0.0000
     43 H          -0.2643    1.6327    1.6036 H       1  UNL1        0.0000
@<TRIPOS>BOND
     1     1     2    1
     2     2     3    2
     3     3     4    1
     4     4     5   ar
     5     5     6   ar
     6     6     7   ar
     7     7     8   ar
     8     8     9    1
     9     9    10   ar
    10    10    11   ar
    11    11    12   ar
    12    12    13   ar
    13    12    14    1
    14    14    15   ar
    15    15    16   ar
    16    16    17   ar
    17    17    18    1
    18    18    19   ar
    19    19    20   ar
    20    20    21   ar
    21    21    22   ar
    22    22    23   ar
    23    17    24   ar
    24    24    25   ar
    25    25    26   ar
    26    26    27   ar
    27    27    28   ar
    28    28    29   ar
    29     5     1    1
    30    13     9   ar
    31    29    14   ar
    32     8     4   ar
    33    23    18   ar
    34    29    24   ar
    35     1    30    1
    36     1    31    1
    37     2    32    1
    38     3    33    1
    39     6    34    1
    40    11    35    1
    41    15    36    1
    42    16    37    1
    43    20    38    1
    44    22    39    1
    45    25    40    1
    46    26    41    1
    47    27    42    1
    48    28    43    1
