@<TRIPOS>MOLECULE
*****
 47 53 0 0 0
SMALL
GASTEIGER

@<TRIPOS>ATOM
      1 SI          8.3345   -0.5276   -0.6925 Si      1  UNL1        0.0000
      2 C           7.1801    0.6085   -1.7092 C.2     1  UNL1        0.0000
      3 C           5.9011    0.5248   -1.2811 C.2     1  UNL1        0.0000
      4 C           5.6854   -0.3717   -0.1808 C.ar    1  UNL1        0.0000
      5 C           6.8309   -1.0590    0.3078 C.ar    1  UNL1        0.0000
      6 C           6.5934   -1.9154    1.3374 C.ar    1  UNL1        0.0000
      7 S           4.9138   -1.8842    1.7313 S.2     1  UNL1        0.0000
      8 C           4.5434   -0.7147    0.5054 C.ar    1  UNL1        0.0000
      9 C           3.2081   -0.2206    0.3316 C.ar    1  UNL1        0.0000
     10 S           1.8796   -1.2539   -0.0447 S.2     1  UNL1        0.0000
     11 C           0.7490    0.0448   -0.1018 C.ar    1  UNL1        0.0000
     12 C          -0.6149   -0.1234   -0.3858 C.2     1  UNL1        0.0000
     13 SI         -1.8788   -0.6477    0.9048 Si      1  UNL1        0.0000
     14 C          -3.1843   -0.4965   -0.4590 C.2     1  UNL1        0.0000
     15 C          -2.6239   -0.1300   -1.6305 C.2     1  UNL1        0.0000
     16 C          -1.1854    0.0953   -1.5865 C.2     1  UNL1        0.0000
     17 C          -4.5737   -0.8274   -0.2367 C.ar    1  UNL1        0.0000
     18 C          -5.2325   -1.9492   -0.7996 C.ar    1  UNL1        0.0000
     19 C          -6.6155   -2.2753   -0.5651 C.ar    1  UNL1        0.0000
     20 C          -7.4862   -1.5127    0.2471 C.ar    1  UNL1        0.0000
     21 C          -6.8237   -0.4113    0.7735 C.ar    1  UNL1        0.0000
     22 C          -7.3758    0.5437    1.5867 C.ar    1  UNL1        0.0000
     23 N          -6.3824    1.4616    1.8557 N.ar    1  UNL1        0.0000
     24 C          -5.2097    1.0981    1.2248 C.ar    1  UNL1        0.0000
     25 C          -5.4521   -0.0762    0.5529 C.ar    1  UNL1        0.0000
     26 C           1.3741    1.2354    0.1603 C.ar    1  UNL1        0.0000
     27 S           0.7526    2.9323    0.2545 S.2     1  UNL1        0.0000
     28 C           2.4129    3.3625    0.6367 C.ar    1  UNL1        0.0000
     29 C           3.3322    2.3091    0.6808 C.ar    1  UNL1        0.0000
     30 C           2.7378    1.0499    0.3964 C.ar    1  UNL1        0.0000
     31 H           8.9091   -1.6010   -1.5409 H       1  UNL1        0.0000
     32 H           9.3190    0.2722    0.0781 H       1  UNL1        0.0000
     33 H           7.5652    1.2081   -2.5184 H       1  UNL1        0.0000
     34 H           5.0904    1.0820   -1.7374 H       1  UNL1        0.0000
     35 H           7.2756   -2.5542    1.8817 H       1  UNL1        0.0000
     36 H          -1.6881   -2.0510    1.3576 H       1  UNL1        0.0000
     37 H          -2.0417    0.3688    1.9784 H       1  UNL1        0.0000
     38 H          -3.1754   -0.0048   -2.5545 H       1  UNL1        0.0000
     39 H          -0.6499    0.4162   -2.4720 H       1  UNL1        0.0000
     40 H          -4.6615   -2.6175   -1.4455 H       1  UNL1        0.0000
     41 H          -7.0131   -3.1696   -1.0466 H       1  UNL1        0.0000
     42 H          -8.5230   -1.7655    0.4135 H       1  UNL1        0.0000
     43 H          -8.3698    0.6696    1.9933 H       1  UNL1        0.0000
     44 H          -6.4970    2.2883    2.4272 H       1  UNL1        0.0000
     45 H          -4.3291    1.7192    1.3150 H       1  UNL1        0.0000
     46 H           2.6199    4.4086    0.8169 H       1  UNL1        0.0000
     47 H           4.3793    2.4616    0.9143 H       1  UNL1        0.0000
@<TRIPOS>BOND
     1     1     2    1
     2     2     3    2
     3     3     4    1
     4     4     5   ar
     5     5     6   ar
     6     6     7   ar
     7     7     8   ar
     8     8     9    1
     9     9    10   ar
    10    10    11   ar
    11    11    12    1
    12    12    13    1
    13    13    14    1
    14    14    15    2
    15    15    16    1
    16    14    17    1
    17    17    18   ar
    18    18    19   ar
    19    19    20   ar
    20    20    21   ar
    21    21    22   ar
    22    22    23   ar
    23    23    24   ar
    24    24    25   ar
    25    11    26   ar
    26    26    27   ar
    27    27    28   ar
    28    28    29   ar
    29    29    30   ar
    30     5     1    1
    31    30     9   ar
    32     8     4   ar
    33    16    12    2
    34    25    17   ar
    35    30    26   ar
    36    25    21   ar
    37     1    31    1
    38     1    32    1
    39     2    33    1
    40     3    34    1
    41     6    35    1
    42    13    36    1
    43    13    37    1
    44    15    38    1
    45    16    39    1
    46    18    40    1
    47    19    41    1
    48    20    42    1
    49    22    43    1
    50    23    44    1
    51    24    45    1
    52    28    46    1
    53    29    47    1
