@<TRIPOS>MOLECULE
*****
 46 53 0 0 0
SMALL
GASTEIGER

@<TRIPOS>ATOM
      1 SI         -8.0492   -0.6900    0.5504 Si      1  UNL1        0.0000
      2 C          -6.8365   -1.3845   -0.7566 C.2     1  UNL1        0.0000
      3 C          -5.5831   -0.9160   -0.5680 C.2     1  UNL1        0.0000
      4 C          -5.4323   -0.0138    0.5382 C.ar    1  UNL1        0.0000
      5 C          -6.6045    0.2606    1.2950 C.ar    1  UNL1        0.0000
      6 C          -6.4253    1.1022    2.3488 C.ar    1  UNL1        0.0000
      7 S          -4.7690    1.5815    2.4233 S.2     1  UNL1        0.0000
      8 C          -4.3314    0.6494    1.0292 C.ar    1  UNL1        0.0000
      9 C          -2.9914    0.6551    0.5302 C.ar    1  UNL1        0.0000
     10 S          -1.6157    0.1072    1.4271 S.2     1  UNL1        0.0000
     11 C          -0.4981    0.4023    0.1238 C.ar    1  UNL1        0.0000
     12 C           0.9049    0.1530    0.2338 C.ar    1  UNL1        0.0000
     13 S           2.0883    1.3543   -0.1209 S.2     1  UNL1        0.0000
     14 C           3.4153    0.3172    0.2484 C.ar    1  UNL1        0.0000
     15 C           4.7789    0.7394    0.1320 C.ar    1  UNL1        0.0000
     16 S           5.3668    2.2397    0.7990 S.2     1  UNL1        0.0000
     17 C           6.9998    1.9733    0.2716 C.ar    1  UNL1        0.0000
     18 C           7.0355    0.7914   -0.3746 C.ar    1  UNL1        0.0000
     19 N           8.1245    0.2076   -0.9529 N.ar    1  UNL1        0.0000
     20 C           7.5648   -0.9626   -1.4623 C.ar    1  UNL1        0.0000
     21 C           6.1838   -1.0435   -1.1818 C.ar    1  UNL1        0.0000
     22 C           5.8338    0.1232   -0.4498 C.ar    1  UNL1        0.0000
     23 C           2.9040   -0.8869    0.6090 C.ar    1  UNL1        0.0000
     24 C           3.4826   -2.1153    1.0302 C.ar    1  UNL1        0.0000
     25 C           2.5278   -3.1011    1.2968 C.ar    1  UNL1        0.0000
     26 S           0.8503   -2.6400    1.0701 S.2     1  UNL1        0.0000
     27 C           1.5118   -1.0169    0.6086 C.ar    1  UNL1        0.0000
     28 C          -1.2117    0.9189   -0.9033 C.ar    1  UNL1        0.0000
     29 C          -1.0624    1.4043   -2.2299 C.ar    1  UNL1        0.0000
     30 C          -2.3423    1.7935   -2.6790 C.ar    1  UNL1        0.0000
     31 N          -3.3140    1.5823   -1.7042 N.ar    1  UNL1        0.0000
     32 C          -2.5659    1.0568   -0.6878 C.ar    1  UNL1        0.0000
     33 H          -8.5773   -1.7719    1.4172 H       1  UNL1        0.0000
     34 H          -9.0711    0.1756   -0.0885 H       1  UNL1        0.0000
     35 H          -7.1741   -2.0750   -1.5126 H       1  UNL1        0.0000
     36 H          -4.7451   -1.2083   -1.1917 H       1  UNL1        0.0000
     37 H          -7.1369    1.4644    3.0783 H       1  UNL1        0.0000
     38 H           7.7942    2.6803    0.4641 H       1  UNL1        0.0000
     39 H           9.0742    0.5570   -0.9913 H       1  UNL1        0.0000
     40 H           8.1999   -1.6559   -1.9992 H       1  UNL1        0.0000
     41 H           5.5313   -1.8517   -1.4856 H       1  UNL1        0.0000
     42 H           4.5449   -2.2950    1.1443 H       1  UNL1        0.0000
     43 H           2.7193   -4.1129    1.6278 H       1  UNL1        0.0000
     44 H          -0.1493    1.4749   -2.8065 H       1  UNL1        0.0000
     45 H          -2.6387    2.2149   -3.6311 H       1  UNL1        0.0000
     46 H          -4.3116    1.7615   -1.7090 H       1  UNL1        0.0000
@<TRIPOS>BOND
     1     1     2    1
     2     2     3    2
     3     3     4    1
     4     4     5   ar
     5     5     6   ar
     6     6     7   ar
     7     7     8   ar
     8     8     9    1
     9     9    10   ar
    10    10    11   ar
    11    11    12    1
    12    12    13   ar
    13    13    14   ar
    14    14    15    1
    15    15    16   ar
    16    16    17   ar
    17    17    18   ar
    18    18    19   ar
    19    19    20   ar
    20    20    21   ar
    21    21    22   ar
    22    14    23   ar
    23    23    24   ar
    24    24    25   ar
    25    25    26   ar
    26    26    27   ar
    27    11    28   ar
    28    28    29   ar
    29    29    30   ar
    30    30    31   ar
    31    31    32   ar
    32     5     1    1
    33    32     9   ar
    34     8     4   ar
    35    27    12   ar
    36    32    28   ar
    37    22    15   ar
    38    27    23   ar
    39    22    18   ar
    40     1    33    1
    41     1    34    1
    42     2    35    1
    43     3    36    1
    44     6    37    1
    45    17    38    1
    46    19    39    1
    47    20    40    1
    48    21    41    1
    49    24    42    1
    50    25    43    1
    51    29    44    1
    52    30    45    1
    53    31    46    1
