@<TRIPOS>MOLECULE
*****
 46 52 0 0 0
SMALL
GASTEIGER

@<TRIPOS>ATOM
      1 SI          5.9996    0.9034   -1.3768 Si      1  UNL1        0.0000
      2 C           7.8762    0.7974   -0.9866 C.2     1  UNL1        0.0000
      3 C           8.0938    0.3757    0.2801 C.2     1  UNL1        0.0000
      4 C           6.9085    0.1127    1.0375 C.ar    1  UNL1        0.0000
      5 C           6.7462   -0.3054    2.3310 C.ar    1  UNL1        0.0000
      6 S           5.0661   -0.4470    2.7200 S.2     1  UNL1        0.0000
      7 C           4.5643    0.0586    1.1459 C.ar    1  UNL1        0.0000
      8 C           5.6650    0.3169    0.3839 C.ar    1  UNL1        0.0000
      9 C           3.1582    0.1526    0.8348 C.ar    1  UNL1        0.0000
     10 C           2.3632    1.3035    1.0401 C.ar    1  UNL1        0.0000
     11 C           0.9712    1.3819    0.6855 C.ar    1  UNL1        0.0000
     12 C           0.2302    0.3185    0.1004 C.ar    1  UNL1        0.0000
     13 C          -1.1742    0.4350   -0.2497 C.ar    1  UNL1        0.0000
     14 N          -1.6888    1.4694   -0.8855 N.ar    1  UNL1        0.0000
     15 C          -3.0545    1.3082   -1.0151 C.ar    1  UNL1        0.0000
     16 C          -3.5848    0.1695   -0.4419 C.ar    1  UNL1        0.0000
     17 S          -2.3187   -0.7441    0.2662 S.2     1  UNL1        0.0000
     18 C          -4.9573   -0.2896   -0.3722 C.ar    1  UNL1        0.0000
     19 C          -5.4131   -1.5101   -0.9295 C.ar    1  UNL1        0.0000
     20 C          -6.7750   -1.9514   -0.8789 C.ar    1  UNL1        0.0000
     21 C          -7.8181   -1.2224   -0.2681 C.ar    1  UNL1        0.0000
     22 C          -7.3643   -0.0240    0.2841 C.ar    1  UNL1        0.0000
     23 C          -8.2015    0.8454    0.9392 C.ar    1  UNL1        0.0000
     24 S          -7.3437    2.2152    1.5219 S.2     1  UNL1        0.0000
     25 C          -5.8475    1.6390    0.8952 C.ar    1  UNL1        0.0000
     26 C          -5.9949    0.4367    0.2411 C.ar    1  UNL1        0.0000
     27 C           1.0424   -0.8011   -0.1171 C.ar    1  UNL1        0.0000
     28 C           0.7398   -1.9966   -0.7199 C.ar    1  UNL1        0.0000
     29 O           1.8428   -2.8064   -0.7324 O.2     1  UNL1        0.0000
     30 C           2.8676   -2.1187   -0.1456 C.ar    1  UNL1        0.0000
     31 C           2.4299   -0.8757    0.2336 C.ar    1  UNL1        0.0000
     32 H           5.6316   -0.0813   -2.4258 H       1  UNL1        0.0000
     33 H           5.6005    2.3100   -1.6392 H       1  UNL1        0.0000
     34 H           8.6097    1.0597   -1.7334 H       1  UNL1        0.0000
     35 H           9.0845    0.2489    0.7011 H       1  UNL1        0.0000
     36 H           7.4970   -0.5372    3.0733 H       1  UNL1        0.0000
     37 H           2.8243    2.1867    1.4856 H       1  UNL1        0.0000
     38 H           0.4534    2.3241    0.8807 H       1  UNL1        0.0000
     39 H          -3.6252    2.0665   -1.5382 H       1  UNL1        0.0000
     40 H          -4.6958   -2.1562   -1.4375 H       1  UNL1        0.0000
     41 H          -7.0183   -2.9089   -1.3421 H       1  UNL1        0.0000
     42 H          -8.8406   -1.5758   -0.2403 H       1  UNL1        0.0000
     43 H          -9.2647    0.7602    1.1180 H       1  UNL1        0.0000
     44 H          -4.9540    2.2264    1.0556 H       1  UNL1        0.0000
     45 H          -0.1420   -2.4252   -1.1751 H       1  UNL1        0.0000
     46 H           3.8109   -2.6449   -0.0908 H       1  UNL1        0.0000
@<TRIPOS>BOND
     1     1     2    1
     2     2     3    2
     3     3     4    1
     4     4     5   ar
     5     5     6   ar
     6     6     7   ar
     7     7     8   ar
     8     7     9    1
     9     9    10   ar
    10    10    11   ar
    11    11    12   ar
    12    12    13    1
    13    13    14   ar
    14    14    15   ar
    15    15    16   ar
    16    16    17   ar
    17    16    18    1
    18    18    19   ar
    19    19    20   ar
    20    20    21   ar
    21    21    22   ar
    22    22    23   ar
    23    23    24   ar
    24    24    25   ar
    25    25    26   ar
    26    12    27   ar
    27    27    28   ar
    28    28    29   ar
    29    29    30   ar
    30    30    31   ar
    31     8     1    1
    32    31     9   ar
    33     8     4   ar
    34    17    13   ar
    35    26    18   ar
    36    31    27   ar
    37    26    22   ar
    38     1    32    1
    39     1    33    1
    40     2    34    1
    41     3    35    1
    42     5    36    1
    43    10    37    1
    44    11    38    1
    45    15    39    1
    46    19    40    1
    47    20    41    1
    48    21    42    1
    49    23    43    1
    50    25    44    1
    51    28    45    1
    52    30    46    1
