@<TRIPOS>MOLECULE
*****
 40 44 0 0 0
SMALL
GASTEIGER

@<TRIPOS>ATOM
      1 SI          4.7112    0.7731   -1.9445 Si      1  UNL1        0.0000
      2 C           6.6093    0.5479   -2.1085 C.2     1  UNL1        0.0000
      3 C           7.0910   -0.2746   -1.1508 C.2     1  UNL1        0.0000
      4 C           6.1060   -0.7860   -0.2478 C.ar    1  UNL1        0.0000
      5 C           6.2298   -1.6230    0.8276 C.ar    1  UNL1        0.0000
      6 S           4.6907   -1.9008    1.5639 S.2     1  UNL1        0.0000
      7 C           3.8568   -0.8924    0.4294 C.ar    1  UNL1        0.0000
      8 C           4.7603   -0.3848   -0.4588 C.ar    1  UNL1        0.0000
      9 C           2.4096   -0.7228    0.5244 C.ar    1  UNL1        0.0000
     10 C           1.5794   -1.1584   -0.5152 C.ar    1  UNL1        0.0000
     11 C           0.1934   -0.9837   -0.4398 C.ar    1  UNL1        0.0000
     12 C          -0.3857   -0.3643    0.6741 C.ar    1  UNL1        0.0000
     13 C           0.4449    0.0637    1.7171 C.ar    1  UNL1        0.0000
     14 C           1.8306   -0.1108    1.6418 C.ar    1  UNL1        0.0000
     15 C          -1.8289   -0.1793    0.7711 C.2     1  UNL1        0.0000
     16 SI         -2.8174    0.8466   -0.4829 Si      1  UNL1        0.0000
     17 C          -4.3576    0.4592    0.5176 C.2     1  UNL1        0.0000
     18 C          -4.0499   -0.3105    1.5859 C.2     1  UNL1        0.0000
     19 C          -2.6448   -0.6632    1.7302 C.2     1  UNL1        0.0000
     20 C          -5.6701    0.9569    0.1303 C.ar    1  UNL1        0.0000
     21 N          -5.7712    1.7038   -0.9706 N.ar    1  UNL1        0.0000
     22 C          -7.0058    2.1166   -1.2512 C.ar    1  UNL1        0.0000
     23 N          -8.1011    1.8511   -0.5461 N.ar    1  UNL1        0.0000
     24 C          -7.8766    1.0993    0.5273 C.ar    1  UNL1        0.0000
     25 N          -6.6971    0.6241    0.9181 N.ar    1  UNL1        0.0000
     26 H           4.3816    2.1828   -1.6175 H       1  UNL1        0.0000
     27 H           4.0134    0.2093   -3.1279 H       1  UNL1        0.0000
     28 H           7.1590    1.0469   -2.8900 H       1  UNL1        0.0000
     29 H           8.1399   -0.5333   -1.0634 H       1  UNL1        0.0000
     30 H           7.1176   -2.0885    1.2317 H       1  UNL1        0.0000
     31 H           2.0039   -1.6544   -1.3854 H       1  UNL1        0.0000
     32 H          -0.4257   -1.3539   -1.2540 H       1  UNL1        0.0000
     33 H           0.0211    0.5442    2.5964 H       1  UNL1        0.0000
     34 H           2.4544    0.2400    2.4611 H       1  UNL1        0.0000
     35 H          -2.4209    2.2791   -0.4394 H       1  UNL1        0.0000
     36 H          -2.7955    0.2046   -1.8249 H       1  UNL1        0.0000
     37 H          -4.7786   -0.6609    2.3084 H       1  UNL1        0.0000
     38 H          -2.3132   -1.2777    2.5590 H       1  UNL1        0.0000
     39 H          -7.1292    2.7272   -2.1393 H       1  UNL1        0.0000
     40 H          -8.7345    0.8499    1.1422 H       1  UNL1        0.0000
@<TRIPOS>BOND
     1     1     2    1
     2     2     3    2
     3     3     4    1
     4     4     5   ar
     5     5     6   ar
     6     6     7   ar
     7     7     8   ar
     8     7     9    1
     9     9    10   ar
    10    10    11   ar
    11    11    12   ar
    12    12    13   ar
    13    13    14   ar
    14    12    15    1
    15    15    16    1
    16    16    17    1
    17    17    18    2
    18    18    19    1
    19    17    20    1
    20    20    21   ar
    21    21    22   ar
    22    22    23   ar
    23    23    24   ar
    24    24    25   ar
    25     8     1    1
    26    14     9   ar
    27    19    15    2
    28    25    20   ar
    29     8     4   ar
    30     1    26    1
    31     1    27    1
    32     2    28    1
    33     3    29    1
    34     5    30    1
    35    10    31    1
    36    11    32    1
    37    13    33    1
    38    14    34    1
    39    16    35    1
    40    16    36    1
    41    18    37    1
    42    19    38    1
    43    22    39    1
    44    24    40    1
