@<TRIPOS>MOLECULE
*****
 43 49 0 0 0
SMALL
GASTEIGER

@<TRIPOS>ATOM
      1 SI         -5.8522   -1.1357   -0.6517 Si      1  UNL1        0.0000
      2 C          -7.7238   -0.9261   -0.2971 C.2     1  UNL1        0.0000
      3 C          -7.9580    0.1493    0.4847 C.2     1  UNL1        0.0000
      4 C          -6.7883    0.8783    0.8691 C.ar    1  UNL1        0.0000
      5 C          -6.6489    1.9964    1.6447 C.ar    1  UNL1        0.0000
      6 S          -4.9827    2.4305    1.7920 S.2     1  UNL1        0.0000
      7 C          -4.4523    1.1241    0.7897 C.ar    1  UNL1        0.0000
      8 C          -5.5389    0.4029    0.3899 C.ar    1  UNL1        0.0000
      9 C          -3.0352    0.9551    0.5037 C.ar    1  UNL1        0.0000
     10 C          -2.5325    1.1227   -0.7808 C.ar    1  UNL1        0.0000
     11 C          -1.1723    0.9175   -1.0305 C.ar    1  UNL1        0.0000
     12 C          -0.3241    0.5372    0.0085 C.ar    1  UNL1        0.0000
     13 N          -0.8028    0.3889    1.2698 N.ar    1  UNL1        0.0000
     14 C          -2.1285    0.5867    1.4865 C.ar    1  UNL1        0.0000
     15 C           1.1182    0.3064   -0.1223 C.ar    1  UNL1        0.0000
     16 C           1.9994    0.3433    0.9736 C.ar    1  UNL1        0.0000
     17 N           3.3613    0.1539    0.9957 N.ar    1  UNL1        0.0000
     18 C           4.0461   -0.1433   -0.1441 C.ar    1  UNL1        0.0000
     19 C           5.4744   -0.3306   -0.0742 C.ar    1  UNL1        0.0000
     20 C           6.4154    0.4570   -0.7521 C.ar    1  UNL1        0.0000
     21 N           7.7863    0.3536   -0.7198 N.ar    1  UNL1        0.0000
     22 C           8.3920   -0.6077    0.0359 C.ar    1  UNL1        0.0000
     23 C           7.5731   -1.4932    0.7633 C.ar    1  UNL1        0.0000
     24 N           7.9884   -2.5012    1.5476 N.ar    1  UNL1        0.0000
     25 S           6.6184   -3.2163    2.1520 S.2     1  UNL1        0.0000
     26 N           5.4447   -2.2955    1.4306 N.ar    1  UNL1        0.0000
     27 C           6.0723   -1.3536    0.7025 C.ar    1  UNL1        0.0000
     28 C           3.3052   -0.2131   -1.3502 C.ar    1  UNL1        0.0000
     29 N           3.7874   -0.4683   -2.5803 N.ar    1  UNL1        0.0000
     30 S           2.4938   -0.4671   -3.6118 S.2     1  UNL1        0.0000
     31 N           1.2662   -0.1220   -2.5609 N.ar    1  UNL1        0.0000
     32 C           1.8036    0.0110   -1.3319 C.ar    1  UNL1        0.0000
     33 H          -5.3409   -2.3868   -0.0473 H       1  UNL1        0.0000
     34 H          -5.5602   -0.9574   -2.0948 H       1  UNL1        0.0000
     35 H          -8.4450   -1.6166   -0.7031 H       1  UNL1        0.0000
     36 H          -8.9509    0.4456    0.8017 H       1  UNL1        0.0000
     37 H          -7.4104    2.5817    2.1398 H       1  UNL1        0.0000
     38 H          -3.1864    1.4256   -1.5945 H       1  UNL1        0.0000
     39 H          -0.8059    1.0758   -2.0385 H       1  UNL1        0.0000
     40 H          -2.4497    0.4196    2.5099 H       1  UNL1        0.0000
     41 H           1.5985    0.5475    1.9698 H       1  UNL1        0.0000
     42 H           6.0723    1.2727   -1.3901 H       1  UNL1        0.0000
     43 H           9.4725   -0.6490    0.0356 H       1  UNL1        0.0000
@<TRIPOS>BOND
     1     1     2    1
     2     2     3    2
     3     3     4    1
     4     4     5   ar
     5     5     6   ar
     6     6     7   ar
     7     7     8   ar
     8     7     9    1
     9     9    10   ar
    10    10    11   ar
    11    11    12   ar
    12    12    13   ar
    13    13    14   ar
    14    12    15    1
    15    15    16   ar
    16    16    17   ar
    17    17    18   ar
    18    18    19    1
    19    19    20   ar
    20    20    21   ar
    21    21    22   ar
    22    22    23   ar
    23    23    24   ar
    24    24    25   ar
    25    25    26   ar
    26    26    27   ar
    27    18    28   ar
    28    28    29   ar
    29    29    30   ar
    30    30    31   ar
    31    31    32   ar
    32     8     1    1
    33    14     9   ar
    34    32    15   ar
    35     8     4   ar
    36    27    19   ar
    37    32    28   ar
    38    27    23   ar
    39     1    33    1
    40     1    34    1
    41     2    35    1
    42     3    36    1
    43     5    37    1
    44    10    38    1
    45    11    39    1
    46    14    40    1
    47    16    41    1
    48    20    42    1
    49    22    43    1
