@<TRIPOS>MOLECULE
*****
 39 44 0 0 0
SMALL
GASTEIGER

@<TRIPOS>ATOM
      1 SI          5.5325    1.4927   -0.0549 Si      1  UNL1        0.0000
      2 C           7.3412    1.2910    0.5429 C.2     1  UNL1        0.0000
      3 C           7.5078    0.1338    1.2203 C.2     1  UNL1        0.0000
      4 C           6.3286   -0.6682    1.3374 C.ar    1  UNL1        0.0000
      5 C           6.1285   -1.8731    1.9537 C.ar    1  UNL1        0.0000
      6 S           4.4842   -2.3764    1.7855 S.2     1  UNL1        0.0000
      7 C           4.0412   -0.9681    0.8792 C.ar    1  UNL1        0.0000
      8 C           5.1410   -0.1726    0.7346 C.ar    1  UNL1        0.0000
      9 C           2.7083   -0.7734    0.3792 C.ar    1  UNL1        0.0000
     10 C           2.3417   -0.5394   -0.9298 C.ar    1  UNL1        0.0000
     11 C           0.9317   -0.3714   -1.0776 C.ar    1  UNL1        0.0000
     12 C           0.2529   -0.4766    0.1223 C.ar    1  UNL1        0.0000
     13 S           1.3456   -0.7797    1.4113 S.2     1  UNL1        0.0000
     14 C          -1.1651   -0.3624    0.3466 C.ar    1  UNL1        0.0000
     15 C          -1.8972   -0.3867    1.5196 C.ar    1  UNL1        0.0000
     16 C          -3.2672   -0.2329    1.1872 C.ar    1  UNL1        0.0000
     17 C          -3.3601   -0.1179   -0.1852 C.ar    1  UNL1        0.0000
     18 N          -2.0748   -0.2002   -0.6731 N.ar    1  UNL1        0.0000
     19 C          -4.5060    0.0537   -1.0310 C.ar    1  UNL1        0.0000
     20 S          -4.3711    0.1832   -2.7725 S.2     1  UNL1        0.0000
     21 C          -6.0759    0.3559   -3.0141 C.ar    1  UNL1        0.0000
     22 C          -6.6623    0.3104   -1.8055 C.ar    1  UNL1        0.0000
     23 O          -7.9963    0.4103   -1.5580 O.2     1  UNL1        0.0000
     24 C          -7.9846    0.2970   -0.1808 C.ar    1  UNL1        0.0000
     25 C          -6.7068    0.1374    0.3704 C.ar    1  UNL1        0.0000
     26 C          -5.8241    0.1476   -0.7283 C.ar    1  UNL1        0.0000
     27 H           5.4614    1.4826   -1.5382 H       1  UNL1        0.0000
     28 H           4.8888    2.6553    0.6052 H       1  UNL1        0.0000
     29 H           8.0810    2.0464    0.3336 H       1  UNL1        0.0000
     30 H           8.4559   -0.1725    1.6473 H       1  UNL1        0.0000
     31 H           6.8336   -2.4899    2.4927 H       1  UNL1        0.0000
     32 H           3.0465   -0.5019   -1.7517 H       1  UNL1        0.0000
     33 H           0.4560   -0.1827   -2.0312 H       1  UNL1        0.0000
     34 H          -1.4950   -0.5018    2.5184 H       1  UNL1        0.0000
     35 H          -4.0888   -0.2114    1.8898 H       1  UNL1        0.0000
     36 H          -1.8449   -0.1521   -1.6550 H       1  UNL1        0.0000
     37 H          -6.5391    0.4761   -3.9824 H       1  UNL1        0.0000
     38 H          -8.9667    0.3482    0.2711 H       1  UNL1        0.0000
     39 H          -6.4824    0.0313    1.4213 H       1  UNL1        0.0000
@<TRIPOS>BOND
     1     1     2    1
     2     2     3    2
     3     3     4    1
     4     4     5   ar
     5     5     6   ar
     6     6     7   ar
     7     7     8   ar
     8     7     9    1
     9     9    10   ar
    10    10    11   ar
    11    11    12   ar
    12    12    13   ar
    13    12    14    1
    14    14    15   ar
    15    15    16   ar
    16    16    17   ar
    17    17    18   ar
    18    17    19    1
    19    19    20   ar
    20    20    21   ar
    21    21    22   ar
    22    22    23   ar
    23    23    24   ar
    24    24    25   ar
    25    25    26   ar
    26     8     1    1
    27    13     9   ar
    28    18    14   ar
    29    26    19   ar
    30     8     4   ar
    31    26    22   ar
    32     1    27    1
    33     1    28    1
    34     2    29    1
    35     3    30    1
    36     5    31    1
    37    10    32    1
    38    11    33    1
    39    15    34    1
    40    16    35    1
    41    18    36    1
    42    21    37    1
    43    24    38    1
    44    25    39    1
