@<TRIPOS>MOLECULE
*****
 31 35 0 0 0
SMALL
GASTEIGER

@<TRIPOS>ATOM
      1 SI         -2.8417   -1.4505    1.0262 Si      1  UNL1        0.0000
      2 C          -4.6752   -1.9645    0.8119 C.2     1  UNL1        0.0000
      3 C          -5.2662   -1.2666   -0.1817 C.2     1  UNL1        0.0000
      4 C          -4.4183   -0.3189   -0.8376 C.ar    1  UNL1        0.0000
      5 C          -4.6884    0.5532   -1.8558 C.ar    1  UNL1        0.0000
      6 S          -3.2910    1.4884   -2.2409 S.2     1  UNL1        0.0000
      7 C          -2.3082    0.7089   -1.0393 C.ar    1  UNL1        0.0000
      8 C          -3.0709   -0.2222   -0.3906 C.ar    1  UNL1        0.0000
      9 C          -0.9287    1.0836   -0.8572 C.ar    1  UNL1        0.0000
     10 C          -0.4015    2.3609   -0.8534 C.ar    1  UNL1        0.0000
     11 C           1.0100    2.3713   -0.6461 C.ar    1  UNL1        0.0000
     12 C           1.5293    1.1013   -0.4912 C.ar    1  UNL1        0.0000
     13 S           0.3052   -0.0853   -0.6434 S.2     1  UNL1        0.0000
     14 C           2.9036    0.7501   -0.2757 C.ar    1  UNL1        0.0000
     15 S           4.1827    1.3640   -1.2651 S.2     1  UNL1        0.0000
     16 C           5.3999    0.5050   -0.4030 C.ar    1  UNL1        0.0000
     17 C           4.7972   -0.1813    0.5924 C.ar    1  UNL1        0.0000
     18 C           5.2894   -1.0311    1.6112 C.ar    1  UNL1        0.0000
     19 C           4.2717   -1.5133    2.4412 C.ar    1  UNL1        0.0000
     20 S           2.6396   -0.9790    2.0657 S.2     1  UNL1        0.0000
     21 C           3.4099   -0.0684    0.7022 C.ar    1  UNL1        0.0000
     22 H          -1.9534   -2.5979    0.7150 H       1  UNL1        0.0000
     23 H          -2.6370   -0.8194    2.3541 H       1  UNL1        0.0000
     24 H          -5.1134   -2.7236    1.4393 H       1  UNL1        0.0000
     25 H          -6.3028   -1.4042   -0.4670 H       1  UNL1        0.0000
     26 H          -5.6131    0.7080   -2.3934 H       1  UNL1        0.0000
     27 H          -0.9989    3.2554   -0.9842 H       1  UNL1        0.0000
     28 H           1.6086    3.2735   -0.6035 H       1  UNL1        0.0000
     29 H           6.4434    0.5708   -0.6765 H       1  UNL1        0.0000
     30 H           6.3304   -1.2928    1.7569 H       1  UNL1        0.0000
     31 H           4.3878   -2.1755    3.2885 H       1  UNL1        0.0000
@<TRIPOS>BOND
     1     1     2    1
     2     2     3    2
     3     3     4    1
     4     4     5   ar
     5     5     6   ar
     6     6     7   ar
     7     7     8   ar
     8     7     9    1
     9     9    10   ar
    10    10    11   ar
    11    11    12   ar
    12    12    13   ar
    13    12    14    1
    14    14    15   ar
    15    15    16   ar
    16    16    17   ar
    17    17    18   ar
    18    18    19   ar
    19    19    20   ar
    20    20    21   ar
    21     8     1    1
    22    13     9   ar
    23    21    14   ar
    24     8     4   ar
    25    21    17   ar
    26     1    22    1
    27     1    23    1
    28     2    24    1
    29     3    25    1
    30     5    26    1
    31    10    27    1
    32    11    28    1
    33    16    29    1
    34    18    30    1
    35    19    31    1
