@<TRIPOS>MOLECULE
*****
 40 46 0 0 0
SMALL
GASTEIGER

@<TRIPOS>ATOM
      1 SI          1.9598    1.0621   -0.7793 Si      1  UNL1        0.0000
      2 C           3.0663   -0.3465   -0.0552 C.2     1  UNL1        0.0000
      3 C           2.3220   -1.2820    0.5746 C.2     1  UNL1        0.0000
      4 C           0.9291   -0.9805    0.5150 C.ar    1  UNL1        0.0000
      5 S          -0.3405   -1.9114    1.1396 S.2     1  UNL1        0.0000
      6 C          -1.5698   -0.7811    0.5946 C.ar    1  UNL1        0.0000
      7 C          -0.9142    0.2772   -0.0487 C.ar    1  UNL1        0.0000
      8 C           0.4643    0.1610   -0.1098 C.ar    1  UNL1        0.0000
      9 C          -1.7336    1.3297   -0.5592 C.ar    1  UNL1        0.0000
     10 C          -1.3886    2.4806   -1.2045 C.ar    1  UNL1        0.0000
     11 N          -2.5819    3.1284   -1.4560 N.ar    1  UNL1        0.0000
     12 C          -3.6386    2.3750   -0.9767 C.ar    1  UNL1        0.0000
     13 C          -3.1256    1.2309   -0.3962 C.ar    1  UNL1        0.0000
     14 C          -3.8681    0.2037    0.2204 C.ar    1  UNL1        0.0000
     15 C          -5.2952    0.1883    0.3286 C.ar    1  UNL1        0.0000
     16 C          -5.9947   -0.8546    0.9434 C.ar    1  UNL1        0.0000
     17 C          -5.2122   -1.9121    1.4685 C.ar    1  UNL1        0.0000
     18 N          -5.7114   -2.9953    2.0858 N.ar    1  UNL1        0.0000
     19 S          -4.4148   -3.9322    2.5169 S.2     1  UNL1        0.0000
     20 N          -3.1680   -3.0162    1.9399 N.ar    1  UNL1        0.0000
     21 C          -3.6952   -1.9136    1.3699 C.ar    1  UNL1        0.0000
     22 C          -3.0013   -0.8356    0.7299 C.ar    1  UNL1        0.0000
     23 C           4.5159   -0.3172   -0.2004 C.ar    1  UNL1        0.0000
     24 C           5.3449   -0.3048    0.9244 C.ar    1  UNL1        0.0000
     25 C           6.7287   -0.2655    0.7651 C.ar    1  UNL1        0.0000
     26 C           7.2436   -0.2433   -0.5196 C.ar    1  UNL1        0.0000
     27 N           6.4800   -0.2577   -1.6354 N.ar    1  UNL1        0.0000
     28 C           5.1389   -0.3011   -1.4468 C.ar    1  UNL1        0.0000
     29 H           2.0469    1.0844   -2.2609 H       1  UNL1        0.0000
     30 H           2.2345    2.3647   -0.1185 H       1  UNL1        0.0000
     31 H           2.7146   -2.1671    1.0632 H       1  UNL1        0.0000
     32 H          -0.4544    2.9259   -1.5102 H       1  UNL1        0.0000
     33 H          -2.6719    4.0262   -1.9179 H       1  UNL1        0.0000
     34 H          -4.6486    2.7432   -1.0971 H       1  UNL1        0.0000
     35 H          -5.8765    1.0135   -0.0847 H       1  UNL1        0.0000
     36 H          -7.0756   -0.8597    1.0164 H       1  UNL1        0.0000
     37 H           4.9216   -0.3178    1.9263 H       1  UNL1        0.0000
     38 H           7.3889   -0.2516    1.6263 H       1  UNL1        0.0000
     39 H           8.3156   -0.2127   -0.6951 H       1  UNL1        0.0000
     40 H           4.5649   -0.3353   -2.3675 H       1  UNL1        0.0000
@<TRIPOS>BOND
     1     1     2    1
     2     2     3    2
     3     3     4    1
     4     4     5   ar
     5     5     6   ar
     6     6     7   ar
     7     7     8   ar
     8     7     9   ar
     9     9    10   ar
    10    10    11   ar
    11    11    12   ar
    12    12    13   ar
    13    13    14   ar
    14    14    15   ar
    15    15    16   ar
    16    16    17   ar
    17    17    18   ar
    18    18    19   ar
    19    19    20   ar
    20    20    21   ar
    21    21    22   ar
    22     2    23    1
    23    23    24   ar
    24    24    25   ar
    25    25    26   ar
    26    26    27   ar
    27    27    28   ar
    28     8     1    1
    29    13     9   ar
    30    22    14   ar
    31    28    23   ar
    32     8     4   ar
    33    21    17   ar
    34    22     6   ar
    35     1    29    1
    36     1    30    1
    37     3    31    1
    38    10    32    1
    39    11    33    1
    40    12    34    1
    41    15    35    1
    42    16    36    1
    43    24    37    1
    44    25    38    1
    45    26    39    1
    46    28    40    1
