@<TRIPOS>MOLECULE
*****
 44 50 0 0 0
SMALL
GASTEIGER

@<TRIPOS>ATOM
      1 SI         -5.7031   -0.2783    1.9109 Si      1  UNL1        0.0000
      2 C          -7.6097   -0.1296    1.8514 C.2     1  UNL1        0.0000
      3 C          -8.0384    0.2132    0.6173 C.2     1  UNL1        0.0000
      4 C          -7.0004    0.3864   -0.3532 C.ar    1  UNL1        0.0000
      5 C          -7.0633    0.7227   -1.6773 C.ar    1  UNL1        0.0000
      6 S          -5.4792    0.7757   -2.3707 S.2     1  UNL1        0.0000
      7 C          -4.7128    0.3410   -0.8802 C.ar    1  UNL1        0.0000
      8 C          -5.6640    0.1821    0.0830 C.ar    1  UNL1        0.0000
      9 C          -3.2724    0.2216   -0.8222 C.ar    1  UNL1        0.0000
     10 C          -2.4303    1.2037   -0.3085 C.ar    1  UNL1        0.0000
     11 N          -1.0653    1.1454   -0.1953 N.ar    1  UNL1        0.0000
     12 C          -0.3455    0.0488   -0.6217 C.ar    1  UNL1        0.0000
     13 C           1.1074    0.0729   -0.4457 C.ar    1  UNL1        0.0000
     14 C           1.6980    0.8047    0.5922 C.ar    1  UNL1        0.0000
     15 C           3.0851    0.8224    0.7634 C.ar    1  UNL1        0.0000
     16 C           3.8920    0.1041   -0.1136 C.ar    1  UNL1        0.0000
     17 N           3.3531   -0.5868   -1.1498 N.ar    1  UNL1        0.0000
     18 C           1.9997   -0.5912   -1.2832 C.ar    1  UNL1        0.0000
     19 C           5.3557    0.0678   -0.0352 C.ar    1  UNL1        0.0000
     20 C           6.1769    0.0081   -1.1939 C.ar    1  UNL1        0.0000
     21 C           7.5911   -0.0344   -1.1742 C.ar    1  UNL1        0.0000
     22 C           8.3358   -0.0256    0.0116 C.ar    1  UNL1        0.0000
     23 C           7.5907    0.0199    1.2129 C.ar    1  UNL1        0.0000
     24 N           8.1160    0.0338    2.4473 N.ar    1  UNL1        0.0000
     25 S           6.8384    0.0370    3.5032 S.2     1  UNL1        0.0000
     26 N           5.5628    0.0586    2.4476 N.ar    1  UNL1        0.0000
     27 C           6.0744    0.0586    1.2007 C.ar    1  UNL1        0.0000
     28 C          -1.0901   -1.0398   -1.1643 C.ar    1  UNL1        0.0000
     29 N          -0.6218   -2.2191   -1.6140 N.ar    1  UNL1        0.0000
     30 S          -1.9284   -3.1089   -2.1044 S.2     1  UNL1        0.0000
     31 N          -3.1577   -2.0543   -1.7717 N.ar    1  UNL1        0.0000
     32 C          -2.5987   -0.9426   -1.2602 C.ar    1  UNL1        0.0000
     33 H          -5.1154    0.7623    2.7845 H       1  UNL1        0.0000
     34 H          -5.2736   -1.6716    2.2067 H       1  UNL1        0.0000
     35 H          -8.2079   -0.3129    2.7289 H       1  UNL1        0.0000
     36 H          -9.0852    0.3479    0.3677 H       1  UNL1        0.0000
     37 H          -7.9299    0.9349   -2.2864 H       1  UNL1        0.0000
     38 H          -2.8544    2.1390    0.0579 H       1  UNL1        0.0000
     39 H           1.0770    1.3762    1.2822 H       1  UNL1        0.0000
     40 H           3.5112    1.4104    1.5725 H       1  UNL1        0.0000
     41 H           1.6598   -1.1586   -2.1446 H       1  UNL1        0.0000
     42 H           5.6836   -0.0067   -2.1698 H       1  UNL1        0.0000
     43 H           8.1204   -0.0794   -2.1255 H       1  UNL1        0.0000
     44 H           9.4185   -0.0592    0.0160 H       1  UNL1        0.0000
@<TRIPOS>BOND
     1     1     2    1
     2     2     3    2
     3     3     4    1
     4     4     5   ar
     5     5     6   ar
     6     6     7   ar
     7     7     8   ar
     8     7     9    1
     9     9    10   ar
    10    10    11   ar
    11    11    12   ar
    12    12    13    1
    13    13    14   ar
    14    14    15   ar
    15    15    16   ar
    16    16    17   ar
    17    17    18   ar
    18    16    19    1
    19    19    20   ar
    20    20    21   ar
    21    21    22   ar
    22    22    23   ar
    23    23    24   ar
    24    24    25   ar
    25    25    26   ar
    26    26    27   ar
    27    12    28   ar
    28    28    29   ar
    29    29    30   ar
    30    30    31   ar
    31    31    32   ar
    32     8     1    1
    33    32     9   ar
    34     8     4   ar
    35    18    13   ar
    36    27    19   ar
    37    32    28   ar
    38    27    23   ar
    39     1    33    1
    40     1    34    1
    41     2    35    1
    42     3    36    1
    43     5    37    1
    44    10    38    1
    45    14    39    1
    46    15    40    1
    47    18    41    1
    48    20    42    1
    49    21    43    1
    50    22    44    1
