@<TRIPOS>MOLECULE
*****
 46 52 0 0 0
SMALL
GASTEIGER

@<TRIPOS>ATOM
      1 SI          5.6388    0.5665   -1.1717 Si      1  UNL1        0.0000
      2 C           7.4314    0.9461   -0.6032 C.2     1  UNL1        0.0000
      3 C           7.5522    0.8468    0.7387 C.2     1  UNL1        0.0000
      4 C           6.3483    0.4913    1.4250 C.ar    1  UNL1        0.0000
      5 C           6.1020    0.3201    2.7599 C.ar    1  UNL1        0.0000
      6 S           4.4453   -0.0920    3.0245 S.2     1  UNL1        0.0000
      7 C           4.0601   -0.0434    1.3366 C.ar    1  UNL1        0.0000
      8 C           5.1863    0.2777    0.6354 C.ar    1  UNL1        0.0000
      9 C           2.7415   -0.3254    0.8560 C.ar    1  UNL1        0.0000
     10 S           1.3378    0.5401    1.4047 S.2     1  UNL1        0.0000
     11 C           0.2420   -0.3377    0.3811 C.ar    1  UNL1        0.0000
     12 C          -1.1673   -0.1013    0.3332 C.ar    1  UNL1        0.0000
     13 S          -2.0880   -0.0201   -1.1374 S.2     1  UNL1        0.0000
     14 C          -3.6002    0.2885   -0.3276 C.ar    1  UNL1        0.0000
     15 C          -4.8408    0.4914   -1.0763 C.ar    1  UNL1        0.0000
     16 C          -5.7121    1.5319   -0.7207 C.ar    1  UNL1        0.0000
     17 C          -6.9052    1.7369   -1.4187 C.ar    1  UNL1        0.0000
     18 C          -7.2443    0.9013   -2.4800 C.ar    1  UNL1        0.0000
     19 C          -6.3921   -0.1389   -2.8434 C.ar    1  UNL1        0.0000
     20 C          -5.1983   -0.3432   -2.1456 C.ar    1  UNL1        0.0000
     21 C          -3.3332    0.3162    0.9989 C.ar    1  UNL1        0.0000
     22 C          -3.9790    0.4851    2.2518 C.ar    1  UNL1        0.0000
     23 C          -2.9905    0.3640    3.2503 C.ar    1  UNL1        0.0000
     24 N          -1.7349    0.1207    2.7006 N.ar    1  UNL1        0.0000
     25 C          -2.0201    0.1073    1.3629 C.ar    1  UNL1        0.0000
     26 C           0.9694   -1.2348   -0.3251 C.ar    1  UNL1        0.0000
     27 N           0.5194   -2.1457   -1.2407 N.ar    1  UNL1        0.0000
     28 C           1.7021   -2.7852   -1.6012 C.ar    1  UNL1        0.0000
     29 C           2.8098   -2.2588   -0.9051 C.ar    1  UNL1        0.0000
     30 C           2.3231   -1.2254   -0.0618 C.ar    1  UNL1        0.0000
     31 H           5.6189   -0.6591   -2.0093 H       1  UNL1        0.0000
     32 H           5.0218    1.7730   -1.7767 H       1  UNL1        0.0000
     33 H           8.1954    1.2003   -1.3198 H       1  UNL1        0.0000
     34 H           8.4832    1.0234    1.2649 H       1  UNL1        0.0000
     35 H           6.7800    0.4138    3.5964 H       1  UNL1        0.0000
     36 H          -5.4619    2.2024    0.0988 H       1  UNL1        0.0000
     37 H          -7.5669    2.5507   -1.1335 H       1  UNL1        0.0000
     38 H          -8.1722    1.0603   -3.0232 H       1  UNL1        0.0000
     39 H          -6.6563   -0.7946   -3.6690 H       1  UNL1        0.0000
     40 H          -4.5572   -1.1701   -2.4410 H       1  UNL1        0.0000
     41 H          -5.0304    0.6663    2.4326 H       1  UNL1        0.0000
     42 H          -3.0864    0.4308    4.3266 H       1  UNL1        0.0000
     43 H          -0.8305   -0.0100    3.1402 H       1  UNL1        0.0000
     44 H          -0.4351   -2.2875   -1.5514 H       1  UNL1        0.0000
     45 H           1.6638   -3.5835   -2.3316 H       1  UNL1        0.0000
     46 H           3.8305   -2.6045   -1.0053 H       1  UNL1        0.0000
@<TRIPOS>BOND
     1     1     2    1
     2     2     3    2
     3     3     4    1
     4     4     5   ar
     5     5     6   ar
     6     6     7   ar
     7     7     8   ar
     8     7     9    1
     9     9    10   ar
    10    10    11   ar
    11    11    12    1
    12    12    13   ar
    13    13    14   ar
    14    14    15    1
    15    15    16   ar
    16    16    17   ar
    17    17    18   ar
    18    18    19   ar
    19    19    20   ar
    20    14    21   ar
    21    21    22   ar
    22    22    23   ar
    23    23    24   ar
    24    24    25   ar
    25    11    26   ar
    26    26    27   ar
    27    27    28   ar
    28    28    29   ar
    29    29    30   ar
    30     8     1    1
    31    30     9   ar
    32     8     4   ar
    33    25    12   ar
    34    30    26   ar
    35    20    15   ar
    36    25    21   ar
    37     1    31    1
    38     1    32    1
    39     2    33    1
    40     3    34    1
    41     5    35    1
    42    16    36    1
    43    17    37    1
    44    18    38    1
    45    19    39    1
    46    20    40    1
    47    22    41    1
    48    23    42    1
    49    24    43    1
    50    27    44    1
    51    28    45    1
    52    29    46    1
