@<TRIPOS>MOLECULE
*****
 44 50 0 0 0
SMALL
GASTEIGER

@<TRIPOS>ATOM
      1 SI         -5.4665   -0.9746   -1.1528 Si      1  UNL1        0.0000
      2 C          -7.2032   -0.2672   -1.5542 C.2     1  UNL1        0.0000
      3 C          -7.2948    1.0362   -1.2102 C.2     1  UNL1        0.0000
      4 C          -6.1072    1.5900   -0.6359 C.ar    1  UNL1        0.0000
      5 C          -5.8382    2.8554   -0.1896 C.ar    1  UNL1        0.0000
      6 S          -4.2164    2.9608    0.3997 S.2     1  UNL1        0.0000
      7 C          -3.8805    1.2998    0.0542 C.ar    1  UNL1        0.0000
      8 C          -4.9912    0.7235   -0.4888 C.ar    1  UNL1        0.0000
      9 C          -2.6089    0.7126    0.3470 C.ar    1  UNL1        0.0000
     10 S          -1.1649    1.1961   -0.4555 S.2     1  UNL1        0.0000
     11 C          -0.1873    0.0529    0.3882 C.ar    1  UNL1        0.0000
     12 C           1.2150   -0.0963    0.1599 C.ar    1  UNL1        0.0000
     13 S           2.3269    1.2368    0.2716 S.2     1  UNL1        0.0000
     14 C           3.7238    0.2763   -0.1114 C.ar    1  UNL1        0.0000
     15 C           5.0928    0.7950   -0.1957 C.ar    1  UNL1        0.0000
     16 C           5.4205    2.1305    0.0304 C.ar    1  UNL1        0.0000
     17 C           6.7521    2.5314   -0.0725 C.ar    1  UNL1        0.0000
     18 C           7.7234    1.5952   -0.3974 C.ar    1  UNL1        0.0000
     19 C           7.3217    0.2889   -0.6074 C.ar    1  UNL1        0.0000
     20 N           6.0394   -0.1300   -0.5150 N.ar    1  UNL1        0.0000
     21 C           3.2935   -0.9927   -0.3092 C.ar    1  UNL1        0.0000
     22 N           4.0524   -2.0800   -0.6390 N.ar    1  UNL1        0.0000
     23 C           3.0900   -3.0802   -0.7177 C.ar    1  UNL1        0.0000
     24 C           1.8007   -2.5790   -0.4382 C.ar    1  UNL1        0.0000
     25 C           1.9383   -1.1918   -0.1613 C.ar    1  UNL1        0.0000
     26 C          -0.9491   -0.6674    1.2706 C.ar    1  UNL1        0.0000
     27 S          -0.5348   -1.9724    2.4556 S.2     1  UNL1        0.0000
     28 C          -2.2435   -1.9503    2.8597 C.ar    1  UNL1        0.0000
     29 C          -3.0343   -1.0341    2.1594 C.ar    1  UNL1        0.0000
     30 C          -2.2890   -0.2748    1.2183 C.ar    1  UNL1        0.0000
     31 H          -4.7613   -1.3691   -2.3971 H       1  UNL1        0.0000
     32 H          -5.5630   -2.0225   -0.1055 H       1  UNL1        0.0000
     33 H          -7.9627   -0.8883   -2.0008 H       1  UNL1        0.0000
     34 H          -8.1922    1.6265   -1.3559 H       1  UNL1        0.0000
     35 H          -6.4804    3.7246   -0.1727 H       1  UNL1        0.0000
     36 H           4.6670    2.8678    0.2848 H       1  UNL1        0.0000
     37 H           7.0246    3.5689    0.1006 H       1  UNL1        0.0000
     38 H           8.7669    1.8764   -0.4848 H       1  UNL1        0.0000
     39 H           8.0436   -0.4813   -0.8639 H       1  UNL1        0.0000
     40 H           5.0600   -2.0794   -0.7777 H       1  UNL1        0.0000
     41 H           3.3992   -4.0857   -0.9717 H       1  UNL1        0.0000
     42 H           0.8904   -3.1636   -0.4414 H       1  UNL1        0.0000
     43 H          -2.5755   -2.6372    3.6265 H       1  UNL1        0.0000
     44 H          -4.0971   -0.9278    2.3420 H       1  UNL1        0.0000
@<TRIPOS>BOND
     1     1     2    1
     2     2     3    2
     3     3     4    1
     4     4     5   ar
     5     5     6   ar
     6     6     7   ar
     7     7     8   ar
     8     7     9    1
     9     9    10   ar
    10    10    11   ar
    11    11    12    1
    12    12    13   ar
    13    13    14   ar
    14    14    15    1
    15    15    16   ar
    16    16    17   ar
    17    17    18   ar
    18    18    19   ar
    19    19    20   ar
    20    14    21   ar
    21    21    22   ar
    22    22    23   ar
    23    23    24   ar
    24    24    25   ar
    25    11    26   ar
    26    26    27   ar
    27    27    28   ar
    28    28    29   ar
    29    29    30   ar
    30     8     1    1
    31    30     9   ar
    32     8     4   ar
    33    25    12   ar
    34    30    26   ar
    35    20    15   ar
    36    25    21   ar
    37     1    31    1
    38     1    32    1
    39     2    33    1
    40     3    34    1
    41     5    35    1
    42    16    36    1
    43    17    37    1
    44    18    38    1
    45    19    39    1
    46    22    40    1
    47    23    41    1
    48    24    42    1
    49    28    43    1
    50    29    44    1
