@<TRIPOS>MOLECULE
*****
 43 49 0 0 0
SMALL
GASTEIGER

@<TRIPOS>ATOM
      1 SI         -5.0178    1.2888   -0.6390 Si      1  UNL1        0.0000
      2 C          -6.7593    1.6789    0.0609 C.2     1  UNL1        0.0000
      3 C          -6.8664    1.3018    1.3541 C.2     1  UNL1        0.0000
      4 C          -5.6880    0.7061    1.9046 C.ar    1  UNL1        0.0000
      5 C          -5.4326    0.2251    3.1603 C.ar    1  UNL1        0.0000
      6 S          -3.8146   -0.3772    3.2639 S.2     1  UNL1        0.0000
      7 C          -3.4652    0.0077    1.6164 C.ar    1  UNL1        0.0000
      8 C          -4.5651    0.5761    1.0452 C.ar    1  UNL1        0.0000
      9 C          -2.1964   -0.2815    1.0343 C.ar    1  UNL1        0.0000
     10 S          -0.7462    0.5907    1.3875 S.2     1  UNL1        0.0000
     11 C           0.2230   -0.3377    0.2748 C.ar    1  UNL1        0.0000
     12 C           1.6124   -0.0814    0.0638 C.ar    1  UNL1        0.0000
     13 S           2.7691    0.1177    1.3368 S.2     1  UNL1        0.0000
     14 C           4.1196    0.3358    0.2534 C.ar    1  UNL1        0.0000
     15 C           5.4747    0.5387    0.7002 C.ar    1  UNL1        0.0000
     16 C           6.6307    0.1761    0.0304 C.ar    1  UNL1        0.0000
     17 C           7.8176    0.5296    0.7374 C.ar    1  UNL1        0.0000
     18 C           7.5361    1.1562    1.9287 C.ar    1  UNL1        0.0000
     19 S           5.8550    1.3125    2.1870 S.2     1  UNL1        0.0000
     20 C           3.6244    0.2555   -1.0054 C.ar    1  UNL1        0.0000
     21 C           4.0262    0.3443   -2.3665 C.ar    1  UNL1        0.0000
     22 C           2.8727    0.1671   -3.1580 C.ar    1  UNL1        0.0000
     23 N           1.7394   -0.0259   -2.3738 N.ar    1  UNL1        0.0000
     24 C           2.2671    0.0340   -1.1134 C.ar    1  UNL1        0.0000
     25 C          -0.5922   -1.2587   -0.2909 C.ar    1  UNL1        0.0000
     26 C          -0.5836   -2.3411   -1.2118 C.ar    1  UNL1        0.0000
     27 C          -1.8981   -2.8507   -1.2703 C.ar    1  UNL1        0.0000
     28 N          -2.7558   -2.1583   -0.4190 N.ar    1  UNL1        0.0000
     29 C          -1.9075   -1.2324    0.1202 C.ar    1  UNL1        0.0000
     30 H          -5.1019    0.2588   -1.7053 H       1  UNL1        0.0000
     31 H          -4.2993    2.5356   -0.9983 H       1  UNL1        0.0000
     32 H          -7.5101    2.1474   -0.5548 H       1  UNL1        0.0000
     33 H          -7.7688    1.4384    1.9392 H       1  UNL1        0.0000
     34 H          -6.0817    0.1905    4.0240 H       1  UNL1        0.0000
     35 H           6.6319   -0.3338   -0.9250 H       1  UNL1        0.0000
     36 H           8.8239    0.3317    0.3892 H       1  UNL1        0.0000
     37 H           8.2356    1.5304    2.6634 H       1  UNL1        0.0000
     38 H           5.0207    0.5271   -2.7510 H       1  UNL1        0.0000
     39 H           2.7692    0.1737   -4.2357 H       1  UNL1        0.0000
     40 H           0.7699   -0.1656   -2.6337 H       1  UNL1        0.0000
     41 H           0.2618   -2.7333   -1.7626 H       1  UNL1        0.0000
     42 H          -2.2908   -3.6783   -1.8478 H       1  UNL1        0.0000
     43 H          -3.7396   -2.2917   -0.2134 H       1  UNL1        0.0000
@<TRIPOS>BOND
     1     1     2    1
     2     2     3    2
     3     3     4    1
     4     4     5   ar
     5     5     6   ar
     6     6     7   ar
     7     7     8   ar
     8     7     9    1
     9     9    10   ar
    10    10    11   ar
    11    11    12    1
    12    12    13   ar
    13    13    14   ar
    14    14    15    1
    15    15    16   ar
    16    16    17   ar
    17    17    18   ar
    18    18    19   ar
    19    14    20   ar
    20    20    21   ar
    21    21    22   ar
    22    22    23   ar
    23    23    24   ar
    24    11    25   ar
    25    25    26   ar
    26    26    27   ar
    27    27    28   ar
    28    28    29   ar
    29     8     1    1
    30    29     9   ar
    31     8     4   ar
    32    24    12   ar
    33    29    25   ar
    34    19    15   ar
    35    24    20   ar
    36     1    30    1
    37     1    31    1
    38     2    32    1
    39     3    33    1
    40     5    34    1
    41    16    35    1
    42    17    36    1
    43    18    37    1
    44    21    38    1
    45    22    39    1
    46    23    40    1
    47    26    41    1
    48    27    42    1
    49    28    43    1
