@<TRIPOS>MOLECULE
*****
 45 50 0 0 0
SMALL
GASTEIGER

@<TRIPOS>ATOM
      1 SI         -6.2899   -0.7336   -1.6293 Si      1  UNL1        0.0000
      2 C          -8.1115   -0.3076   -1.2189 C.2     1  UNL1        0.0000
      3 C          -8.2217    0.2417    0.0103 C.2     1  UNL1        0.0000
      4 C          -6.9871    0.3816    0.7198 C.ar    1  UNL1        0.0000
      5 C          -6.7289    0.8933    1.9604 C.ar    1  UNL1        0.0000
      6 S          -5.0421    0.8169    2.3106 S.2     1  UNL1        0.0000
      7 C          -4.6412    0.0905    0.7767 C.ar    1  UNL1        0.0000
      8 C          -3.3072   -0.2500    0.4584 C.2     1  UNL1        0.0000
      9 SI         -1.8730    0.9640    0.4742 Si      1  UNL1        0.0000
     10 C          -0.7475   -0.4810   -0.1032 C.2     1  UNL1        0.0000
     11 C          -1.4878   -1.6027   -0.2405 C.2     1  UNL1        0.0000
     12 C          -2.9054   -1.4765    0.0703 C.2     1  UNL1        0.0000
     13 C           0.6611   -0.3402   -0.3570 C.2     1  UNL1        0.0000
     14 SI          1.8561    0.6189    0.7938 Si      1  UNL1        0.0000
     15 C           3.2461    0.1581   -0.3930 C.2     1  UNL1        0.0000
     16 C           2.7800   -0.5812   -1.4198 C.2     1  UNL1        0.0000
     17 C           1.3514   -0.8601   -1.3955 C.2     1  UNL1        0.0000
     18 C           4.6120    0.5789   -0.1757 C.ar    1  UNL1        0.0000
     19 C           5.0790    1.9178   -0.1803 C.ar    1  UNL1        0.0000
     20 C           6.4550    2.2970    0.0298 C.ar    1  UNL1        0.0000
     21 C           7.5090    1.3828    0.2644 C.ar    1  UNL1        0.0000
     22 C           7.0255    0.0818    0.2597 C.ar    1  UNL1        0.0000
     23 C           7.7460   -1.0656    0.4544 C.ar    1  UNL1        0.0000
     24 O           6.9086   -2.1462    0.3845 O.2     1  UNL1        0.0000
     25 C           5.6455   -1.6755    0.1430 C.ar    1  UNL1        0.0000
     26 C           5.6686   -0.3069    0.0518 C.ar    1  UNL1        0.0000
     27 C          -5.8048   -0.0675    0.0726 C.ar    1  UNL1        0.0000
     28 H          -6.1133   -2.2006   -1.7777 H       1  UNL1        0.0000
     29 H          -5.8051    0.0877   -2.7668 H       1  UNL1        0.0000
     30 H          -8.8996   -0.5075   -1.9265 H       1  UNL1        0.0000
     31 H          -9.1676    0.5561    0.4364 H       1  UNL1        0.0000
     32 H          -7.4173    1.3062    2.6841 H       1  UNL1        0.0000
     33 H          -1.9724    2.0178   -0.5691 H       1  UNL1        0.0000
     34 H          -1.4782    1.4256    1.8312 H       1  UNL1        0.0000
     35 H          -1.0851   -2.5585   -0.5553 H       1  UNL1        0.0000
     36 H          -3.5565   -2.3392   -0.0081 H       1  UNL1        0.0000
     37 H           1.5603    2.0759    0.7919 H       1  UNL1        0.0000
     38 H           1.9828   -0.0269    2.1248 H       1  UNL1        0.0000
     39 H           3.3969   -0.9539   -2.2294 H       1  UNL1        0.0000
     40 H           0.9021   -1.4495   -2.1863 H       1  UNL1        0.0000
     41 H           4.3651    2.7218   -0.3659 H       1  UNL1        0.0000
     42 H           6.6953    3.3610    0.0012 H       1  UNL1        0.0000
     43 H           8.5360    1.6796    0.4204 H       1  UNL1        0.0000
     44 H           8.7848   -1.2935    0.6457 H       1  UNL1        0.0000
     45 H           4.8760   -2.4308    0.0696 H       1  UNL1        0.0000
@<TRIPOS>BOND
     1     1     2    1
     2     2     3    2
     3     3     4    1
     4     4     5   ar
     5     5     6   ar
     6     6     7   ar
     7     7     8    1
     8     8     9    1
     9     9    10    1
    10    10    11    2
    11    11    12    1
    12    10    13    1
    13    13    14    1
    14    14    15    1
    15    15    16    2
    16    16    17    1
    17    15    18    1
    18    18    19   ar
    19    19    20   ar
    20    20    21   ar
    21    21    22   ar
    22    22    23   ar
    23    23    24   ar
    24    24    25   ar
    25    25    26   ar
    26     7    27   ar
    27    27     1    1
    28    27     4   ar
    29    12     8    2
    30    17    13    2
    31    26    18   ar
    32    26    22   ar
    33     1    28    1
    34     1    29    1
    35     2    30    1
    36     3    31    1
    37     5    32    1
    38     9    33    1
    39     9    34    1
    40    11    35    1
    41    12    36    1
    42    14    37    1
    43    14    38    1
    44    16    39    1
    45    17    40    1
    46    19    41    1
    47    20    42    1
    48    21    43    1
    49    23    44    1
    50    25    45    1
