@<TRIPOS>MOLECULE
*****
 44 50 0 0 0
SMALL
GASTEIGER

@<TRIPOS>ATOM
      1 SI         -6.0083   -1.3617   -0.8983 Si      1  UNL1        0.0000
      2 C          -7.8257   -0.7683   -1.0189 C.2     1  UNL1        0.0000
      3 C          -8.0027    0.4043   -0.3718 C.2     1  UNL1        0.0000
      4 C          -6.8262    0.9336    0.2470 C.ar    1  UNL1        0.0000
      5 C          -6.6402    2.0814    0.9651 C.ar    1  UNL1        0.0000
      6 S          -4.9981    2.2214    1.4730 S.2     1  UNL1        0.0000
      7 C          -4.5189    0.7245    0.7187 C.ar    1  UNL1        0.0000
      8 C          -3.1892    0.2559    0.8094 C.2     1  UNL1        0.0000
      9 SI         -1.6772    1.2396    0.2507 Si      1  UNL1        0.0000
     10 C          -0.6376   -0.2545    0.7461 C.2     1  UNL1        0.0000
     11 C          -1.4077   -1.2484    1.2329 C.2     1  UNL1        0.0000
     12 C          -2.8365   -0.9630    1.2664 C.2     1  UNL1        0.0000
     13 C           0.7601   -0.3129    0.5978 C.ar    1  UNL1        0.0000
     14 S           1.8545    0.7472    1.4047 S.2     1  UNL1        0.0000
     15 C           3.2545    0.0145    0.7128 C.ar    1  UNL1        0.0000
     16 C           4.5816    0.4809    0.9823 C.ar    1  UNL1        0.0000
     17 S           5.1634    0.8077    2.5936 S.2     1  UNL1        0.0000
     18 C           6.7496    1.2677    2.0571 C.ar    1  UNL1        0.0000
     19 C           6.7763    1.1614    0.7140 C.ar    1  UNL1        0.0000
     20 N           7.8304    1.4347   -0.1076 N.ar    1  UNL1        0.0000
     21 C           7.2771    1.1606   -1.3570 C.ar    1  UNL1        0.0000
     22 C           5.9336    0.7412   -1.2499 C.ar    1  UNL1        0.0000
     23 C           5.6033    0.7350    0.1322 C.ar    1  UNL1        0.0000
     24 C           2.8323   -0.9940   -0.0907 C.ar    1  UNL1        0.0000
     25 C           3.4977   -1.9589   -0.8957 C.ar    1  UNL1        0.0000
     26 C           2.6132   -2.8184   -1.5551 C.ar    1  UNL1        0.0000
     27 S           0.9036   -2.5502   -1.2617 S.2     1  UNL1        0.0000
     28 C           1.4538   -1.2054   -0.1786 C.ar    1  UNL1        0.0000
     29 C          -5.6263    0.1834    0.1226 C.ar    1  UNL1        0.0000
     30 H          -5.9201   -2.6306   -0.1319 H       1  UNL1        0.0000
     31 H          -5.3755   -1.3786   -2.2409 H       1  UNL1        0.0000
     32 H          -8.5623   -1.3466   -1.5526 H       1  UNL1        0.0000
     33 H          -8.9579    0.9140   -0.3192 H       1  UNL1        0.0000
     34 H          -7.3578    2.8464    1.2254 H       1  UNL1        0.0000
     35 H          -1.4067    2.4300    1.0993 H       1  UNL1        0.0000
     36 H          -1.6590    1.4745   -1.2177 H       1  UNL1        0.0000
     37 H          -1.0312   -2.2035    1.5801 H       1  UNL1        0.0000
     38 H          -3.5316   -1.7032    1.6445 H       1  UNL1        0.0000
     39 H           7.5267    1.5767    2.7415 H       1  UNL1        0.0000
     40 H           8.7560    1.7559    0.1490 H       1  UNL1        0.0000
     41 H           7.8882    1.2939   -2.2407 H       1  UNL1        0.0000
     42 H           5.2914    0.4849   -2.0824 H       1  UNL1        0.0000
     43 H           4.5725   -2.0448   -1.0013 H       1  UNL1        0.0000
     44 H           2.8769   -3.6284   -2.2215 H       1  UNL1        0.0000
@<TRIPOS>BOND
     1     1     2    1
     2     2     3    2
     3     3     4    1
     4     4     5   ar
     5     5     6   ar
     6     6     7   ar
     7     7     8    1
     8     8     9    1
     9     9    10    1
    10    10    11    2
    11    11    12    1
    12    10    13    1
    13    13    14   ar
    14    14    15   ar
    15    15    16    1
    16    16    17   ar
    17    17    18   ar
    18    18    19   ar
    19    19    20   ar
    20    20    21   ar
    21    21    22   ar
    22    22    23   ar
    23    15    24   ar
    24    24    25   ar
    25    25    26   ar
    26    26    27   ar
    27    27    28   ar
    28     7    29   ar
    29    29     1    1
    30    29     4   ar
    31    12     8    2
    32    28    13   ar
    33    23    16   ar
    34    28    24   ar
    35    23    19   ar
    36     1    30    1
    37     1    31    1
    38     2    32    1
    39     3    33    1
    40     5    34    1
    41     9    35    1
    42     9    36    1
    43    11    37    1
    44    12    38    1
    45    18    39    1
    46    20    40    1
    47    21    41    1
    48    22    42    1
    49    25    43    1
    50    26    44    1
