@<TRIPOS>MOLECULE
*****
 43 48 0 0 0
SMALL
GASTEIGER

@<TRIPOS>ATOM
      1 SI          6.2576    0.3125    0.3048 Si      1  UNL1        0.0000
      2 C           7.6281   -1.0161    0.2073 C.2     1  UNL1        0.0000
      3 C           7.1287   -2.2022   -0.2018 C.2     1  UNL1        0.0000
      4 C           5.7221   -2.2030   -0.4666 C.ar    1  UNL1        0.0000
      5 C           4.9018   -3.2181   -0.8744 C.ar    1  UNL1        0.0000
      6 S           3.2766   -2.6621   -1.0192 S.2     1  UNL1        0.0000
      7 C           3.6766   -1.0375   -0.5471 C.ar    1  UNL1        0.0000
      8 C           2.6695   -0.0159   -0.4792 C.ar    1  UNL1        0.0000
      9 C           2.7628    1.3584   -0.5832 C.ar    1  UNL1        0.0000
     10 C           1.4577    1.8977   -0.4406 C.ar    1  UNL1        0.0000
     11 C           0.5841    0.8461   -0.2468 C.ar    1  UNL1        0.0000
     12 N           1.3356   -0.3045   -0.2989 N.ar    1  UNL1        0.0000
     13 C          -0.8320    0.8245   -0.0510 C.ar    1  UNL1        0.0000
     14 S          -1.8530   -0.4665   -0.6053 S.2     1  UNL1        0.0000
     15 C          -3.3213    0.2741   -0.0269 C.ar    1  UNL1        0.0000
     16 C          -4.6272   -0.3526   -0.2345 C.ar    1  UNL1        0.0000
     17 C          -5.7187    0.4232   -0.6527 C.ar    1  UNL1        0.0000
     18 C          -6.9754   -0.1556   -0.8488 C.ar    1  UNL1        0.0000
     19 C          -7.1577   -1.5182   -0.6257 C.ar    1  UNL1        0.0000
     20 C          -6.0853   -2.3020   -0.2065 C.ar    1  UNL1        0.0000
     21 C          -4.8282   -1.7228   -0.0113 C.ar    1  UNL1        0.0000
     22 C          -2.9637    1.4378    0.5646 C.ar    1  UNL1        0.0000
     23 C          -3.5268    2.5392    1.2613 C.ar    1  UNL1        0.0000
     24 C          -2.4638    3.3941    1.6182 C.ar    1  UNL1        0.0000
     25 N          -1.2379    2.8934    1.1868 N.ar    1  UNL1        0.0000
     26 C          -1.6177    1.7376    0.5630 C.ar    1  UNL1        0.0000
     27 C           5.0162   -0.9795   -0.2854 C.ar    1  UNL1        0.0000
     28 H           6.0602    0.7569    1.7073 H       1  UNL1        0.0000
     29 H           6.5076    1.4048   -0.6695 H       1  UNL1        0.0000
     30 H           8.6489   -0.7818    0.4619 H       1  UNL1        0.0000
     31 H           7.7367   -3.0913   -0.3232 H       1  UNL1        0.0000
     32 H           5.1479   -4.2481   -1.0904 H       1  UNL1        0.0000
     33 H           3.6629    1.9280   -0.7693 H       1  UNL1        0.0000
     34 H           1.1942    2.9450   -0.5037 H       1  UNL1        0.0000
     35 H           0.9616   -1.2395   -0.2082 H       1  UNL1        0.0000
     36 H          -5.5955    1.4873   -0.8421 H       1  UNL1        0.0000
     37 H          -7.8095    0.4586   -1.1778 H       1  UNL1        0.0000
     38 H          -8.1349   -1.9691   -0.7780 H       1  UNL1        0.0000
     39 H          -6.2253   -3.3650   -0.0281 H       1  UNL1        0.0000
     40 H          -4.0103   -2.3537    0.3288 H       1  UNL1        0.0000
     41 H          -4.5692    2.7049    1.4992 H       1  UNL1        0.0000
     42 H          -2.4850    4.3289    2.1635 H       1  UNL1        0.0000
     43 H          -0.2990    3.2520    1.3064 H       1  UNL1        0.0000
@<TRIPOS>BOND
     1     1     2    1
     2     2     3    2
     3     3     4    1
     4     4     5   ar
     5     5     6   ar
     6     6     7   ar
     7     7     8    1
     8     8     9   ar
     9     9    10   ar
    10    10    11   ar
    11    11    12   ar
    12    11    13    1
    13    13    14   ar
    14    14    15   ar
    15    15    16    1
    16    16    17   ar
    17    17    18   ar
    18    18    19   ar
    19    19    20   ar
    20    20    21   ar
    21    15    22   ar
    22    22    23   ar
    23    23    24   ar
    24    24    25   ar
    25    25    26   ar
    26     7    27   ar
    27    27     1    1
    28    27     4   ar
    29    12     8   ar
    30    26    13   ar
    31    21    16   ar
    32    26    22   ar
    33     1    28    1
    34     1    29    1
    35     2    30    1
    36     3    31    1
    37     5    32    1
    38     9    33    1
    39    10    34    1
    40    12    35    1
    41    17    36    1
    42    18    37    1
    43    19    38    1
    44    20    39    1
    45    21    40    1
    46    23    41    1
    47    24    42    1
    48    25    43    1
