@<TRIPOS>MOLECULE
*****
 42 48 0 0 0
SMALL
GASTEIGER

@<TRIPOS>ATOM
      1 SI         -4.2173    1.7912   -0.2179 Si      1  UNL1        0.0000
      2 C          -5.9857    2.5214   -0.3063 C.2     1  UNL1        0.0000
      3 C          -6.8567    1.6291   -0.8253 C.2     1  UNL1        0.0000
      4 C          -6.2817    0.3691   -1.1848 C.ar    1  UNL1        0.0000
      5 C          -6.8579   -0.7458   -1.7273 C.ar    1  UNL1        0.0000
      6 S          -5.6802   -1.9854   -1.9545 S.2     1  UNL1        0.0000
      7 C          -4.3830   -1.0212   -1.3202 C.ar    1  UNL1        0.0000
      8 C          -3.0335   -1.5171   -1.2295 C.ar    1  UNL1        0.0000
      9 C          -2.5280   -2.7531   -1.5935 C.ar    1  UNL1        0.0000
     10 C          -1.1437   -2.7465   -1.3053 C.ar    1  UNL1        0.0000
     11 C          -0.8395   -1.5063   -0.7726 C.ar    1  UNL1        0.0000
     12 O          -1.9958   -0.7664   -0.7309 O.2     1  UNL1        0.0000
     13 C           0.4240   -0.9973   -0.3191 C.ar    1  UNL1        0.0000
     14 S           1.8921   -1.9233   -0.3667 S.2     1  UNL1        0.0000
     15 C           2.8826   -0.6591    0.3163 C.ar    1  UNL1        0.0000
     16 C           4.2975   -0.7815    0.5618 C.ar    1  UNL1        0.0000
     17 S           5.1764   -2.2596    0.1827 S.2     1  UNL1        0.0000
     18 C           6.6994   -1.6574    0.7251 C.ar    1  UNL1        0.0000
     19 C           6.5092   -0.3997    1.1628 C.ar    1  UNL1        0.0000
     20 N           7.4711    0.4229    1.6730 N.ar    1  UNL1        0.0000
     21 C           6.7298    1.5638    1.9527 C.ar    1  UNL1        0.0000
     22 C           5.3723    1.3930    1.6079 C.ar    1  UNL1        0.0000
     23 C           5.2161    0.0778    1.0771 C.ar    1  UNL1        0.0000
     24 C           2.0612    0.3913    0.5445 C.ar    1  UNL1        0.0000
     25 O           2.3864    1.6057    1.0713 O.2     1  UNL1        0.0000
     26 C           1.1531    2.2237    1.0508 C.ar    1  UNL1        0.0000
     27 C           0.1256    1.4284    0.5377 C.ar    1  UNL1        0.0000
     28 C           0.7392    0.2091    0.2027 C.ar    1  UNL1        0.0000
     29 C          -4.8876    0.1969   -0.9619 C.ar    1  UNL1        0.0000
     30 H          -3.7738    1.6816    1.1947 H       1  UNL1        0.0000
     31 H          -3.2990    2.5533   -1.1010 H       1  UNL1        0.0000
     32 H          -6.1888    3.5243    0.0325 H       1  UNL1        0.0000
     33 H          -7.9109    1.8405   -0.9630 H       1  UNL1        0.0000
     34 H          -7.8889   -0.9144   -2.0045 H       1  UNL1        0.0000
     35 H          -3.0915   -3.5717   -2.0200 H       1  UNL1        0.0000
     36 H          -0.4494   -3.5591   -1.4699 H       1  UNL1        0.0000
     37 H           7.6065   -2.2439    0.6899 H       1  UNL1        0.0000
     38 H           8.4560    0.2266    1.8017 H       1  UNL1        0.0000
     39 H           7.2269    2.4244    2.3815 H       1  UNL1        0.0000
     40 H           4.6135    2.1512    1.7389 H       1  UNL1        0.0000
     41 H           1.1631    3.2351    1.4357 H       1  UNL1        0.0000
     42 H          -0.9088    1.7154    0.4328 H       1  UNL1        0.0000
@<TRIPOS>BOND
     1     1     2    1
     2     2     3    2
     3     3     4    1
     4     4     5   ar
     5     5     6   ar
     6     6     7   ar
     7     7     8    1
     8     8     9   ar
     9     9    10   ar
    10    10    11   ar
    11    11    12   ar
    12    11    13    1
    13    13    14   ar
    14    14    15   ar
    15    15    16    1
    16    16    17   ar
    17    17    18   ar
    18    18    19   ar
    19    19    20   ar
    20    20    21   ar
    21    21    22   ar
    22    22    23   ar
    23    15    24   ar
    24    24    25   ar
    25    25    26   ar
    26    26    27   ar
    27    27    28   ar
    28     7    29   ar
    29    29     1    1
    30    29     4   ar
    31    12     8   ar
    32    28    13   ar
    33    23    16   ar
    34    28    24   ar
    35    23    19   ar
    36     1    30    1
    37     1    31    1
    38     2    32    1
    39     3    33    1
    40     5    34    1
    41     9    35    1
    42    10    36    1
    43    18    37    1
    44    20    38    1
    45    21    39    1
    46    22    40    1
    47    26    41    1
    48    27    42    1
