@<TRIPOS>MOLECULE
*****
 43 49 0 0 0
SMALL
GASTEIGER

@<TRIPOS>ATOM
      1 SI          6.2130   -1.7773   -0.4783 Si      1  UNL1        0.0000
      2 C           8.0193   -1.2433   -0.8077 C.2     1  UNL1        0.0000
      3 C           8.1432    0.1019   -0.8002 C.2     1  UNL1        0.0000
      4 C           6.9282    0.8157   -0.5517 C.ar    1  UNL1        0.0000
      5 C           6.6849    2.1602   -0.4872 C.ar    1  UNL1        0.0000
      6 S           5.0149    2.4606   -0.1671 S.2     1  UNL1        0.0000
      7 C           4.6171    0.7743   -0.1114 C.ar    1  UNL1        0.0000
      8 C           3.2834    0.3200    0.1588 C.ar    1  UNL1        0.0000
      9 C           2.8766   -0.6244    1.0810 C.ar    1  UNL1        0.0000
     10 N           1.5218   -0.8966    1.1139 N.ar    1  UNL1        0.0000
     11 C           0.8961   -0.1278    0.2469 C.ar    1  UNL1        0.0000
     12 S           1.9109    0.8927   -0.6965 S.2     1  UNL1        0.0000
     13 C          -0.5335   -0.1720   -0.0050 C.ar    1  UNL1        0.0000
     14 C          -1.1831   -1.3383   -0.4766 C.ar    1  UNL1        0.0000
     15 C          -2.5858   -1.4187   -0.7386 C.ar    1  UNL1        0.0000
     16 C          -3.4853   -0.3441   -0.5428 C.ar    1  UNL1        0.0000
     17 C          -4.9099   -0.4436   -0.7827 C.ar    1  UNL1        0.0000
     18 S          -5.5181   -0.7677   -2.3858 S.2     1  UNL1        0.0000
     19 C          -7.1800   -0.7341   -1.8877 C.ar    1  UNL1        0.0000
     20 C          -7.2016   -0.4926   -0.5649 C.ar    1  UNL1        0.0000
     21 O          -8.3064   -0.3923    0.2223 O.2     1  UNL1        0.0000
     22 C          -7.6996   -0.1529    1.4427 C.ar    1  UNL1        0.0000
     23 C          -6.3000   -0.1105    1.3903 C.ar    1  UNL1        0.0000
     24 C          -5.9793   -0.3358    0.0396 C.ar    1  UNL1        0.0000
     25 C          -2.8514    0.8143   -0.0534 C.ar    1  UNL1        0.0000
     26 C          -3.4917    2.0039    0.2108 C.ar    1  UNL1        0.0000
     27 S          -2.4140    3.1885    0.8269 S.2     1  UNL1        0.0000
     28 C          -1.0702    2.1252    0.7236 C.ar    1  UNL1        0.0000
     29 C          -1.4236    0.8976    0.2104 C.ar    1  UNL1        0.0000
     30 C           5.7514    0.0476   -0.3357 C.ar    1  UNL1        0.0000
     31 H           6.0959   -2.5151    0.8041 H       1  UNL1        0.0000
     32 H           5.6344   -2.4568   -1.6632 H       1  UNL1        0.0000
     33 H           8.7929   -1.9757   -0.9733 H       1  UNL1        0.0000
     34 H           9.0850    0.6115   -0.9693 H       1  UNL1        0.0000
     35 H           7.3729    2.9850   -0.6097 H       1  UNL1        0.0000
     36 H           3.5298   -1.1523    1.7656 H       1  UNL1        0.0000
     37 H          -0.5815   -2.2323   -0.6516 H       1  UNL1        0.0000
     38 H          -2.9764   -2.3721   -1.0982 H       1  UNL1        0.0000
     39 H          -8.0113   -0.8883   -2.5596 H       1  UNL1        0.0000
     40 H          -8.3972   -0.0347    2.2618 H       1  UNL1        0.0000
     41 H          -5.6353    0.0595    2.2253 H       1  UNL1        0.0000
     42 H          -4.5349    2.2605    0.0879 H       1  UNL1        0.0000
     43 H          -0.1018    2.4803    1.0482 H       1  UNL1        0.0000
@<TRIPOS>BOND
     1     1     2    1
     2     2     3    2
     3     3     4    1
     4     4     5   ar
     5     5     6   ar
     6     6     7   ar
     7     7     8    1
     8     8     9   ar
     9     9    10   ar
    10    10    11   ar
    11    11    12   ar
    12    11    13    1
    13    13    14   ar
    14    14    15   ar
    15    15    16   ar
    16    16    17    1
    17    17    18   ar
    18    18    19   ar
    19    19    20   ar
    20    20    21   ar
    21    21    22   ar
    22    22    23   ar
    23    23    24   ar
    24    16    25   ar
    25    25    26   ar
    26    26    27   ar
    27    27    28   ar
    28    28    29   ar
    29     7    30   ar
    30    30     1    1
    31    30     4   ar
    32    12     8   ar
    33    29    13   ar
    34    24    17   ar
    35    29    25   ar
    36    24    20   ar
    37     1    31    1
    38     1    32    1
    39     2    33    1
    40     3    34    1
    41     5    35    1
    42     9    36    1
    43    14    37    1
    44    15    38    1
    45    19    39    1
    46    22    40    1
    47    23    41    1
    48    26    42    1
    49    28    43    1
