@<TRIPOS>MOLECULE
*****
 38 42 0 0 0
SMALL
GASTEIGER

@<TRIPOS>ATOM
      1 SI          5.4919    1.7140    0.4931 Si      1  UNL1        0.0000
      2 C           7.0084    0.8038   -0.1571 C.2     1  UNL1        0.0000
      3 C           6.7227   -0.4774   -0.4621 C.2     1  UNL1        0.0000
      4 C           5.3366   -0.8746   -0.2519 C.2     1  UNL1        0.0000
      5 C           4.5277    0.0950    0.2333 C.2     1  UNL1        0.0000
      6 C           3.1307   -0.0018    0.5226 C.2     1  UNL1        0.0000
      7 SI          1.8174    0.1382   -0.8499 Si      1  UNL1        0.0000
      8 C           0.5160   -0.1332    0.4903 C.2     1  UNL1        0.0000
      9 C           1.0916   -0.2889    1.7026 C.2     1  UNL1        0.0000
     10 C           2.5466   -0.2162    1.7213 C.2     1  UNL1        0.0000
     11 C          -0.8726   -0.1813    0.2250 C.ar    1  UNL1        0.0000
     12 S          -2.0383    0.5653    1.3078 S.2     1  UNL1        0.0000
     13 C          -3.4145    0.1135    0.3649 C.ar    1  UNL1        0.0000
     14 C          -4.7749    0.4147    0.7016 C.ar    1  UNL1        0.0000
     15 C          -5.2777    1.1642    1.7552 C.ar    1  UNL1        0.0000
     16 C          -6.6910    1.1560    1.6512 C.ar    1  UNL1        0.0000
     17 C          -6.9824    0.4074    0.5394 C.ar    1  UNL1        0.0000
     18 O          -5.8419   -0.0413   -0.0414 O.2     1  UNL1        0.0000
     19 C          -2.9678   -0.5635   -0.7134 C.ar    1  UNL1        0.0000
     20 N          -3.7180   -1.1031   -1.7194 N.ar    1  UNL1        0.0000
     21 C          -2.7339   -1.6688   -2.5236 C.ar    1  UNL1        0.0000
     22 C          -1.4451   -1.4607   -1.9893 C.ar    1  UNL1        0.0000
     23 C          -1.5997   -0.7180   -0.7868 C.ar    1  UNL1        0.0000
     24 H           5.6393    2.0862    1.9238 H       1  UNL1        0.0000
     25 H           5.0575    2.8064   -0.4198 H       1  UNL1        0.0000
     26 H           7.9692    1.2930   -0.2375 H       1  UNL1        0.0000
     27 H           7.4497   -1.1825   -0.8473 H       1  UNL1        0.0000
     28 H           5.0082   -1.8843   -0.4923 H       1  UNL1        0.0000
     29 H           1.9062   -0.9891   -1.8173 H       1  UNL1        0.0000
     30 H           1.7800    1.5033   -1.4450 H       1  UNL1        0.0000
     31 H           0.5503   -0.4733    2.6246 H       1  UNL1        0.0000
     32 H           3.0908   -0.3344    2.6558 H       1  UNL1        0.0000
     33 H          -4.6897    1.6609    2.5156 H       1  UNL1        0.0000
     34 H          -7.4052    1.6365    2.3057 H       1  UNL1        0.0000
     35 H          -7.9034    0.1147    0.0532 H       1  UNL1        0.0000
     36 H          -4.7292   -1.0746   -1.8072 H       1  UNL1        0.0000
     37 H          -3.0291   -2.1871   -3.4262 H       1  UNL1        0.0000
     38 H          -0.5264   -1.8189   -2.4354 H       1  UNL1        0.0000
@<TRIPOS>BOND
     1     1     2    1
     2     2     3    2
     3     3     4    1
     4     4     5    2
     5     5     6    1
     6     6     7    1
     7     7     8    1
     8     8     9    2
     9     9    10    1
    10     8    11    1
    11    11    12   ar
    12    12    13   ar
    13    13    14    1
    14    14    15   ar
    15    15    16   ar
    16    16    17   ar
    17    17    18   ar
    18    13    19   ar
    19    19    20   ar
    20    20    21   ar
    21    21    22   ar
    22    22    23   ar
    23     5     1    1
    24    10     6    2
    25    23    11   ar
    26    18    14   ar
    27    23    19   ar
    28     1    24    1
    29     1    25    1
    30     2    26    1
    31     3    27    1
    32     4    28    1
    33     7    29    1
    34     7    30    1
    35     9    31    1
    36    10    32    1
    37    15    33    1
    38    16    34    1
    39    17    35    1
    40    20    36    1
    41    21    37    1
    42    22    38    1
