@<TRIPOS>MOLECULE
*****
 33 38 0 0 0
SMALL
GASTEIGER

@<TRIPOS>ATOM
      1 SI          1.7315    0.6785   -1.0887 Si      1  UNL1        0.0000
      2 C           2.8439   -0.0969    0.3063 C.2     1  UNL1        0.0000
      3 C           2.0733   -0.6588    1.2705 C.2     1  UNL1        0.0000
      4 C           0.6794   -0.5285    1.0006 C.ar    1  UNL1        0.0000
      5 S          -0.6094   -1.0910    1.9508 S.2     1  UNL1        0.0000
      6 C          -1.8149   -0.4749    0.8328 C.ar    1  UNL1        0.0000
      7 C          -1.1560    0.1399   -0.2279 C.ar    1  UNL1        0.0000
      8 C           0.2268    0.1088   -0.1323 C.ar    1  UNL1        0.0000
      9 C          -1.9319    0.7279   -1.2839 C.ar    1  UNL1        0.0000
     10 N          -1.3777    1.3303   -2.3261 N.ar    1  UNL1        0.0000
     11 S          -2.7068    1.8170   -3.2203 S.2     1  UNL1        0.0000
     12 N          -3.9489    1.2472   -2.2559 N.ar    1  UNL1        0.0000
     13 C          -3.3786    0.6487   -1.1875 C.ar    1  UNL1        0.0000
     14 C          -4.0567    0.0187   -0.1007 C.ar    1  UNL1        0.0000
     15 C          -5.4569   -0.0584   -0.0066 C.ar    1  UNL1        0.0000
     16 C          -5.9989   -0.6945    1.0950 C.ar    1  UNL1        0.0000
     17 N          -5.2625   -1.2454    2.0848 N.ar    1  UNL1        0.0000
     18 C          -3.9132   -1.1615    1.9771 C.ar    1  UNL1        0.0000
     19 C          -3.2444   -0.5448    0.9133 C.ar    1  UNL1        0.0000
     20 C           4.2699   -0.0497    0.2653 C.ar    1  UNL1        0.0000
     21 C           5.1186    0.5050   -0.6866 C.ar    1  UNL1        0.0000
     22 C           6.5044    0.3565   -0.3841 C.ar    1  UNL1        0.0000
     23 C           6.7000   -0.3116    0.7983 C.ar    1  UNL1        0.0000
     24 S           5.2274   -0.7523    1.5309 S.2     1  UNL1        0.0000
     25 H           1.9540   -0.0312   -2.3754 H       1  UNL1        0.0000
     26 H           1.9174    2.1524   -1.1325 H       1  UNL1        0.0000
     27 H           2.4364   -1.1589    2.1597 H       1  UNL1        0.0000
     28 H          -6.1011    0.3653   -0.7701 H       1  UNL1        0.0000
     29 H          -7.0753   -0.7819    1.2167 H       1  UNL1        0.0000
     30 H          -3.3783   -1.6227    2.8032 H       1  UNL1        0.0000
     31 H           4.7756    1.0078   -1.5824 H       1  UNL1        0.0000
     32 H           7.3128    0.7226   -1.0050 H       1  UNL1        0.0000
     33 H           7.6401   -0.5635    1.2696 H       1  UNL1        0.0000
@<TRIPOS>BOND
     1     1     2    1
     2     2     3    2
     3     3     4    1
     4     4     5   ar
     5     5     6   ar
     6     6     7   ar
     7     7     8   ar
     8     7     9   ar
     9     9    10   ar
    10    10    11   ar
    11    11    12   ar
    12    12    13   ar
    13    13    14   ar
    14    14    15   ar
    15    15    16   ar
    16    16    17   ar
    17    17    18   ar
    18    18    19   ar
    19     2    20    1
    20    20    21   ar
    21    21    22   ar
    22    22    23   ar
    23    23    24   ar
    24     8     1    1
    25    13     9   ar
    26    19    14   ar
    27    24    20   ar
    28     8     4   ar
    29    19     6   ar
    30     1    25    1
    31     1    26    1
    32     3    27    1
    33    15    28    1
    34    16    29    1
    35    18    30    1
    36    21    31    1
    37    22    32    1
    38    23    33    1
