@<TRIPOS>MOLECULE
*****
 46 51 0 0 0
SMALL
GASTEIGER

@<TRIPOS>ATOM
      1 SI          5.9167    1.6332   -1.1378 Si      1  UNL1        0.0000
      2 C           7.6134    0.8331   -1.3200 C.2     1  UNL1        0.0000
      3 C           7.5403   -0.5048   -1.1951 C.2     1  UNL1        0.0000
      4 C           6.2060   -1.0339   -0.9576 C.2     1  UNL1        0.0000
      5 C           5.2303   -0.1068   -0.8766 C.2     1  UNL1        0.0000
      6 C           3.8175   -0.3571   -0.6875 C.ar    1  UNL1        0.0000
      7 C           2.9599   -0.7913   -1.7246 C.ar    1  UNL1        0.0000
      8 C           1.5626   -1.0395   -1.5499 C.ar    1  UNL1        0.0000
      9 C           0.8828   -0.8811   -0.3205 C.ar    1  UNL1        0.0000
     10 C          -0.5409   -1.1105   -0.1738 C.ar    1  UNL1        0.0000
     11 C          -1.3120   -2.2065   -0.5098 C.ar    1  UNL1        0.0000
     12 C          -2.6576   -1.9059   -0.1877 C.ar    1  UNL1        0.0000
     13 C          -2.7007   -0.6204    0.3197 C.ar    1  UNL1        0.0000
     14 N          -1.4061   -0.1525    0.3052 N.ar    1  UNL1        0.0000
     15 C          -3.8069    0.1810    0.8032 C.ar    1  UNL1        0.0000
     16 C          -3.7895    0.9238    2.0111 C.ar    1  UNL1        0.0000
     17 C          -4.8938    1.7162    2.4877 C.ar    1  UNL1        0.0000
     18 C          -6.1260    1.8537    1.8083 C.ar    1  UNL1        0.0000
     19 C          -6.1172    1.1228    0.6277 C.ar    1  UNL1        0.0000
     20 C          -7.1456    1.0483   -0.2754 C.ar    1  UNL1        0.0000
     21 N          -6.7141    0.2384   -1.3045 N.ar    1  UNL1        0.0000
     22 C          -5.4265   -0.1958   -1.0653 C.ar    1  UNL1        0.0000
     23 C          -5.0320    0.3286    0.1424 C.ar    1  UNL1        0.0000
     24 C           1.7354   -0.4805    0.7254 C.ar    1  UNL1        0.0000
     25 C           1.3492   -0.3273    2.0378 C.ar    1  UNL1        0.0000
     26 S           2.6577    0.1565    3.0384 S.2     1  UNL1        0.0000
     27 C           3.7669    0.1241    1.7287 C.ar    1  UNL1        0.0000
     28 C           3.1544   -0.2277    0.5473 C.ar    1  UNL1        0.0000
     29 H           5.4601    2.2553   -2.4059 H       1  UNL1        0.0000
     30 H           5.8361    2.4743    0.0828 H       1  UNL1        0.0000
     31 H           8.4985    1.4227   -1.4992 H       1  UNL1        0.0000
     32 H           8.3960   -1.1654   -1.2644 H       1  UNL1        0.0000
     33 H           6.0421   -2.1006   -0.8606 H       1  UNL1        0.0000
     34 H           3.3783   -0.9431   -2.7206 H       1  UNL1        0.0000
     35 H           0.9929   -1.3581   -2.4238 H       1  UNL1        0.0000
     36 H          -0.9419   -3.1334   -0.9289 H       1  UNL1        0.0000
     37 H          -3.5101   -2.5622   -0.3078 H       1  UNL1        0.0000
     38 H          -1.1317    0.7790    0.5853 H       1  UNL1        0.0000
     39 H          -2.8983    0.8854    2.6376 H       1  UNL1        0.0000
     40 H          -4.7701    2.2393    3.4366 H       1  UNL1        0.0000
     41 H          -6.9472    2.4523    2.1745 H       1  UNL1        0.0000
     42 H          -8.1325    1.4897   -0.2958 H       1  UNL1        0.0000
     43 H          -7.2588    0.0038   -2.1239 H       1  UNL1        0.0000
     44 H          -4.9220   -0.8292   -1.7816 H       1  UNL1        0.0000
     45 H           0.3774   -0.4833    2.4848 H       1  UNL1        0.0000
     46 H           4.8067    0.3556    1.9139 H       1  UNL1        0.0000
@<TRIPOS>BOND
     1     1     2    1
     2     2     3    2
     3     3     4    1
     4     4     5    2
     5     5     6    1
     6     6     7   ar
     7     7     8   ar
     8     8     9   ar
     9     9    10    1
    10    10    11   ar
    11    11    12   ar
    12    12    13   ar
    13    13    14   ar
    14    13    15    1
    15    15    16   ar
    16    16    17   ar
    17    17    18   ar
    18    18    19   ar
    19    19    20   ar
    20    20    21   ar
    21    21    22   ar
    22    22    23   ar
    23     9    24   ar
    24    24    25   ar
    25    25    26   ar
    26    26    27   ar
    27    27    28   ar
    28     5     1    1
    29    28     6   ar
    30    14    10   ar
    31    23    15   ar
    32    28    24   ar
    33    23    19   ar
    34     1    29    1
    35     1    30    1
    36     2    31    1
    37     3    32    1
    38     4    33    1
    39     7    34    1
    40     8    35    1
    41    11    36    1
    42    12    37    1
    43    14    38    1
    44    16    39    1
    45    17    40    1
    46    18    41    1
    47    20    42    1
    48    21    43    1
    49    22    44    1
    50    25    45    1
    51    27    46    1
