@<TRIPOS>MOLECULE
*****
 41 46 0 0 0
SMALL
GASTEIGER

@<TRIPOS>ATOM
      1 SI          5.5755   -1.5365   -2.0953 Si      1  UNL1        0.0000
      2 C           7.3778   -0.9917   -1.9810 C.2     1  UNL1        0.0000
      3 C           7.5079    0.0831   -1.1850 C.2     1  UNL1        0.0000
      4 C           6.2701    0.5789   -0.6015 C.2     1  UNL1        0.0000
      5 C           5.1443   -0.0975   -0.9285 C.2     1  UNL1        0.0000
      6 C           3.7604    0.1451   -0.5134 C.ar    1  UNL1        0.0000
      7 C           3.4145    1.1879    0.3375 C.ar    1  UNL1        0.0000
      8 C           2.0740    1.3717    0.7007 C.ar    1  UNL1        0.0000
      9 C           1.0740    0.5221    0.2210 C.ar    1  UNL1        0.0000
     10 C           1.5267   -0.4907   -0.6249 C.ar    1  UNL1        0.0000
     11 N           2.8207   -0.6945   -0.9956 N.ar    1  UNL1        0.0000
     12 C          -0.3433    0.6779    0.5757 C.ar    1  UNL1        0.0000
     13 S          -1.5987   -0.3630   -0.0070 S.2     1  UNL1        0.0000
     14 C          -2.8947    0.4541    0.8307 C.ar    1  UNL1        0.0000
     15 C          -4.2813    0.0274    0.7372 C.ar    1  UNL1        0.0000
     16 S          -5.5268    0.8821    1.5950 S.2     1  UNL1        0.0000
     17 C          -6.7767   -0.1330    1.0311 C.ar    1  UNL1        0.0000
     18 C          -6.2861   -1.1079    0.2076 C.ar    1  UNL1        0.0000
     19 N          -7.0889   -2.0437   -0.3706 N.ar    1  UNL1        0.0000
     20 C          -6.3609   -2.8955   -1.1400 C.ar    1  UNL1        0.0000
     21 C          -4.9766   -2.8286   -1.3198 C.ar    1  UNL1        0.0000
     22 N          -4.1578   -1.9038   -0.7527 N.ar    1  UNL1        0.0000
     23 C          -4.8512   -1.0247    0.0317 C.ar    1  UNL1        0.0000
     24 C          -2.3098    1.4762    1.5109 C.ar    1  UNL1        0.0000
     25 C          -2.6403    2.5419    2.3769 C.ar    1  UNL1        0.0000
     26 C          -1.4315    3.1812    2.6618 C.ar    1  UNL1        0.0000
     27 O          -0.3383    2.6129    2.0472 O.2     1  UNL1        0.0000
     28 C          -0.9417    1.5922    1.3711 C.ar    1  UNL1        0.0000
     29 H           5.0829   -1.3651   -3.4869 H       1  UNL1        0.0000
     30 H           5.4156   -2.8844   -1.4900 H       1  UNL1        0.0000
     31 H           8.1588   -1.5146   -2.5090 H       1  UNL1        0.0000
     32 H           8.4547    0.5657   -0.9755 H       1  UNL1        0.0000
     33 H           6.3071    1.4428    0.0497 H       1  UNL1        0.0000
     34 H           4.1598    1.8694    0.7319 H       1  UNL1        0.0000
     35 H           1.8469    2.1980    1.3672 H       1  UNL1        0.0000
     36 H           0.8480   -1.2170   -1.0644 H       1  UNL1        0.0000
     37 H          -7.8039    0.0281    1.3248 H       1  UNL1        0.0000
     38 H          -6.9383   -3.6717   -1.6343 H       1  UNL1        0.0000
     39 H          -4.4739   -3.5530   -1.9547 H       1  UNL1        0.0000
     40 H          -3.6046    2.8379    2.7628 H       1  UNL1        0.0000
     41 H          -1.1944    4.0403    3.2760 H       1  UNL1        0.0000
@<TRIPOS>BOND
     1     1     2    1
     2     2     3    2
     3     3     4    1
     4     4     5    2
     5     5     6    1
     6     6     7   ar
     7     7     8   ar
     8     8     9   ar
     9     9    10   ar
    10    10    11   ar
    11     9    12    1
    12    12    13   ar
    13    13    14   ar
    14    14    15    1
    15    15    16   ar
    16    16    17   ar
    17    17    18   ar
    18    18    19   ar
    19    19    20   ar
    20    20    21   ar
    21    21    22   ar
    22    22    23   ar
    23    14    24   ar
    24    24    25   ar
    25    25    26   ar
    26    26    27   ar
    27    27    28   ar
    28     5     1    1
    29    11     6   ar
    30    28    12   ar
    31    23    15   ar
    32    28    24   ar
    33    23    18   ar
    34     1    29    1
    35     1    30    1
    36     2    31    1
    37     3    32    1
    38     4    33    1
    39     7    34    1
    40     8    35    1
    41    10    36    1
    42    17    37    1
    43    20    38    1
    44    21    39    1
    45    25    40    1
    46    26    41    1
