@<TRIPOS>MOLECULE
*****
 43 48 0 0 0
SMALL
GASTEIGER

@<TRIPOS>ATOM
      1 SI         -6.4274   -1.5536   -0.3133 Si      1  UNL1        0.0000
      2 C          -7.9708   -0.5094   -0.5731 C.2     1  UNL1        0.0000
      3 C          -7.6683    0.7984   -0.6659 C.2     1  UNL1        0.0000
      4 C          -6.2538    1.1187   -0.5496 C.2     1  UNL1        0.0000
      5 C          -5.4395    0.0602   -0.3571 C.2     1  UNL1        0.0000
      6 C          -3.9908    0.0880   -0.2235 C.ar    1  UNL1        0.0000
      7 C          -3.3541   -0.2802    0.9603 C.ar    1  UNL1        0.0000
      8 C          -1.9612   -0.2321    1.0433 C.ar    1  UNL1        0.0000
      9 C          -1.2228    0.1799   -0.0646 C.ar    1  UNL1        0.0000
     10 N          -1.8252    0.5691   -1.2152 N.ar    1  UNL1        0.0000
     11 C          -3.1784    0.5117   -1.2696 C.ar    1  UNL1        0.0000
     12 C           0.2318    0.2764   -0.0620 C.ar    1  UNL1        0.0000
     13 C           0.9541    1.3886   -0.5789 C.ar    1  UNL1        0.0000
     14 C           2.3886    1.5179   -0.5727 C.ar    1  UNL1        0.0000
     15 C           3.2817    0.5379   -0.0654 C.ar    1  UNL1        0.0000
     16 C           4.7219    0.6792   -0.0443 C.ar    1  UNL1        0.0000
     17 C           5.3945    1.7157    0.6196 C.ar    1  UNL1        0.0000
     18 N           6.7480    1.9444    0.6868 N.ar    1  UNL1        0.0000
     19 C           7.6246    1.1131    0.0537 C.ar    1  UNL1        0.0000
     20 C           7.1007    0.0240   -0.6691 C.ar    1  UNL1        0.0000
     21 N           7.8041   -0.8911   -1.3554 N.ar    1  UNL1        0.0000
     22 S           6.6947   -1.9296   -2.0224 S.2     1  UNL1        0.0000
     23 N           5.2805   -1.2709   -1.4631 N.ar    1  UNL1        0.0000
     24 C           5.6094   -0.1972   -0.7215 C.ar    1  UNL1        0.0000
     25 C           2.5602   -0.5579    0.4227 C.ar    1  UNL1        0.0000
     26 C           3.0485   -1.7052    0.9958 C.ar    1  UNL1        0.0000
     27 O           2.0162   -2.5384    1.3207 O.2     1  UNL1        0.0000
     28 C           0.8559   -1.9187    0.9530 C.ar    1  UNL1        0.0000
     29 C           1.1303   -0.6817    0.4248 C.ar    1  UNL1        0.0000
     30 H          -6.1451   -2.4318   -1.4751 H       1  UNL1        0.0000
     31 H          -6.4014   -2.1946    1.0255 H       1  UNL1        0.0000
     32 H          -8.9511   -0.9553   -0.6330 H       1  UNL1        0.0000
     33 H          -8.4048    1.5786   -0.8165 H       1  UNL1        0.0000
     34 H          -5.9162    2.1466   -0.6139 H       1  UNL1        0.0000
     35 H          -3.9283   -0.5883    1.8306 H       1  UNL1        0.0000
     36 H          -1.4718   -0.4929    1.9764 H       1  UNL1        0.0000
     37 H          -3.6036    0.8261   -2.2196 H       1  UNL1        0.0000
     38 H           0.3793    2.2100   -1.0142 H       1  UNL1        0.0000
     39 H           2.8015    2.4310   -1.0062 H       1  UNL1        0.0000
     40 H           4.8153    2.4570    1.1733 H       1  UNL1        0.0000
     41 H           8.6808    1.3327    0.1347 H       1  UNL1        0.0000
     42 H           4.0345   -2.0856    1.2227 H       1  UNL1        0.0000
     43 H          -0.0428   -2.4907    1.1354 H       1  UNL1        0.0000
@<TRIPOS>BOND
     1     1     2    1
     2     2     3    2
     3     3     4    1
     4     4     5    2
     5     5     6    1
     6     6     7   ar
     7     7     8   ar
     8     8     9   ar
     9     9    10   ar
    10    10    11   ar
    11     9    12    1
    12    12    13   ar
    13    13    14   ar
    14    14    15   ar
    15    15    16    1
    16    16    17   ar
    17    17    18   ar
    18    18    19   ar
    19    19    20   ar
    20    20    21   ar
    21    21    22   ar
    22    22    23   ar
    23    23    24   ar
    24    15    25   ar
    25    25    26   ar
    26    26    27   ar
    27    27    28   ar
    28    28    29   ar
    29     5     1    1
    30    11     6   ar
    31    29    12   ar
    32    24    16   ar
    33    29    25   ar
    34    24    20   ar
    35     1    30    1
    36     1    31    1
    37     2    32    1
    38     3    33    1
    39     4    34    1
    40     7    35    1
    41     8    36    1
    42    11    37    1
    43    13    38    1
    44    14    39    1
    45    17    40    1
    46    19    41    1
    47    26    42    1
    48    28    43    1
