@<TRIPOS>MOLECULE
*****
 42 47 0 0 0
SMALL
GASTEIGER

@<TRIPOS>ATOM
      1 SI          6.7863    0.1808   -0.5824 Si      1  UNL1        0.0000
      2 C           7.2300    1.9690   -0.2095 C.2     1  UNL1        0.0000
      3 C           6.1304    2.6820    0.0954 C.2     1  UNL1        0.0000
      4 C           4.8818    1.9327    0.0695 C.2     1  UNL1        0.0000
      5 C           4.9965    0.6278   -0.2558 C.2     1  UNL1        0.0000
      6 C           3.8991   -0.2630   -0.3339 C.ar    1  UNL1        0.0000
      7 C           3.8374   -1.6140   -0.6543 C.ar    1  UNL1        0.0000
      8 C           2.4825   -2.0214   -0.5873 C.ar    1  UNL1        0.0000
      9 C           1.7444   -0.9143   -0.2189 C.ar    1  UNL1        0.0000
     10 O           2.6045    0.1394   -0.0792 O.2     1  UNL1        0.0000
     11 C           0.3345   -0.7831   -0.0193 C.ar    1  UNL1        0.0000
     12 S          -0.5326    0.6744   -0.3870 S.2     1  UNL1        0.0000
     13 C          -2.0794    0.0143    0.0615 C.ar    1  UNL1        0.0000
     14 C          -3.2828    0.8077   -0.0559 C.ar    1  UNL1        0.0000
     15 C          -3.4632    2.1080    0.4827 C.ar    1  UNL1        0.0000
     16 C          -4.6803    2.8725    0.3646 C.ar    1  UNL1        0.0000
     17 C          -5.8430    2.4230   -0.3039 C.ar    1  UNL1        0.0000
     18 C          -5.6374    1.1532   -0.8255 C.ar    1  UNL1        0.0000
     19 C          -6.5297    0.4061   -1.5458 C.ar    1  UNL1        0.0000
     20 O          -5.9482   -0.7812   -1.8988 O.2     1  UNL1        0.0000
     21 C          -4.6742   -0.7832   -1.3967 C.ar    1  UNL1        0.0000
     22 C          -4.4399    0.3838   -0.7144 C.ar    1  UNL1        0.0000
     23 C          -1.8588   -1.2477    0.4949 C.ar    1  UNL1        0.0000
     24 C          -2.5478   -2.3626    1.0388 C.ar    1  UNL1        0.0000
     25 C          -1.5876   -3.3650    1.2848 C.ar    1  UNL1        0.0000
     26 N          -0.3068   -2.9462    0.9321 N.ar    1  UNL1        0.0000
     27 C          -0.5509   -1.6850    0.4623 C.ar    1  UNL1        0.0000
     28 H           7.3486   -0.7571    0.4224 H       1  UNL1        0.0000
     29 H           7.0537   -0.1799   -1.9977 H       1  UNL1        0.0000
     30 H           8.2471    2.3251   -0.2496 H       1  UNL1        0.0000
     31 H           6.1410    3.7360    0.3450 H       1  UNL1        0.0000
     32 H           3.9426    2.4228    0.3005 H       1  UNL1        0.0000
     33 H           4.6744   -2.2443   -0.9212 H       1  UNL1        0.0000
     34 H           2.0948   -3.0051   -0.8088 H       1  UNL1        0.0000
     35 H          -2.6383    2.5655    1.0316 H       1  UNL1        0.0000
     36 H          -4.7008    3.8623    0.8234 H       1  UNL1        0.0000
     37 H          -6.7483    3.0067   -0.3882 H       1  UNL1        0.0000
     38 H          -7.5455    0.5465   -1.8866 H       1  UNL1        0.0000
     39 H          -4.0933   -1.6674   -1.6180 H       1  UNL1        0.0000
     40 H          -3.6066   -2.4453    1.2481 H       1  UNL1        0.0000
     41 H          -1.7183   -4.3547    1.7040 H       1  UNL1        0.0000
     42 H           0.5839   -3.4188    1.0190 H       1  UNL1        0.0000
@<TRIPOS>BOND
     1     1     2    1
     2     2     3    2
     3     3     4    1
     4     4     5    2
     5     5     6    1
     6     6     7   ar
     7     7     8   ar
     8     8     9   ar
     9     9    10   ar
    10     9    11    1
    11    11    12   ar
    12    12    13   ar
    13    13    14    1
    14    14    15   ar
    15    15    16   ar
    16    16    17   ar
    17    17    18   ar
    18    18    19   ar
    19    19    20   ar
    20    20    21   ar
    21    21    22   ar
    22    13    23   ar
    23    23    24   ar
    24    24    25   ar
    25    25    26   ar
    26    26    27   ar
    27     5     1    1
    28    10     6   ar
    29    27    11   ar
    30    22    14   ar
    31    27    23   ar
    32    22    18   ar
    33     1    28    1
    34     1    29    1
    35     2    30    1
    36     3    31    1
    37     4    32    1
    38     7    33    1
    39     8    34    1
    40    15    35    1
    41    16    36    1
    42    17    37    1
    43    19    38    1
    44    21    39    1
    45    24    40    1
    46    25    41    1
    47    26    42    1
