@<TRIPOS>MOLECULE
*****
 45 51 0 0 0
SMALL
GASTEIGER

@<TRIPOS>ATOM
      1 SI          6.8504   -0.9850   -0.8618 Si      1  UNL1        0.0000
      2 C           8.2075    0.3134   -0.9292 C.2     1  UNL1        0.0000
      3 C           7.6996    1.5433   -0.7402 C.2     1  UNL1        0.0000
      4 C           6.2609    1.5898   -0.5320 C.2     1  UNL1        0.0000
      5 C           5.6120    0.4010   -0.5539 C.2     1  UNL1        0.0000
      6 C           4.1730    0.2369   -0.3630 C.ar    1  UNL1        0.0000
      7 N           3.4299    1.3838   -0.1790 N.ar    1  UNL1        0.0000
      8 C           2.0744    1.3497    0.0146 C.ar    1  UNL1        0.0000
      9 C           1.2628    0.2213    0.0443 C.ar    1  UNL1        0.0000
     10 C          -0.1669    0.2453    0.2681 C.ar    1  UNL1        0.0000
     11 S          -1.2265    0.4940   -1.0574 S.2     1  UNL1        0.0000
     12 C          -2.6410    0.3658   -0.0780 C.ar    1  UNL1        0.0000
     13 C          -3.9446    0.4827   -0.7072 C.ar    1  UNL1        0.0000
     14 C          -4.3769    1.5800   -1.4982 C.ar    1  UNL1        0.0000
     15 C          -5.6754    1.6690   -2.1193 C.ar    1  UNL1        0.0000
     16 C          -6.6762    0.6743   -2.0212 C.ar    1  UNL1        0.0000
     17 C          -6.2272   -0.3865   -1.2462 C.ar    1  UNL1        0.0000
     18 C          -6.9146   -1.5300   -0.9409 C.ar    1  UNL1        0.0000
     19 O          -6.1292   -2.3396   -0.1662 O.2     1  UNL1        0.0000
     20 C          -4.9341   -1.6978    0.0230 C.ar    1  UNL1        0.0000
     21 C          -4.9474   -0.4869   -0.6216 C.ar    1  UNL1        0.0000
     22 C          -2.2977    0.1580    1.2417 C.ar    1  UNL1        0.0000
     23 N          -3.2060    0.0379    2.2541 N.ar    1  UNL1        0.0000
     24 C          -2.5860   -0.1528    3.4496 C.ar    1  UNL1        0.0000
     25 C          -1.2007   -0.2128    3.6383 C.ar    1  UNL1        0.0000
     26 N          -0.2699   -0.0888    2.6534 N.ar    1  UNL1        0.0000
     27 C          -0.8680    0.0936    1.4404 C.ar    1  UNL1        0.0000
     28 C           1.9589   -0.9952   -0.1378 C.ar    1  UNL1        0.0000
     29 N           1.4218   -2.2293   -0.1571 N.ar    1  UNL1        0.0000
     30 S           2.6631   -3.2926   -0.4021 S.2     1  UNL1        0.0000
     31 N           3.9429   -2.2495   -0.5088 N.ar    1  UNL1        0.0000
     32 C           3.4620   -1.0017   -0.3495 C.ar    1  UNL1        0.0000
     33 H           7.0433   -1.8822    0.3055 H       1  UNL1        0.0000
     34 H           6.6872   -1.6427   -2.1833 H       1  UNL1        0.0000
     35 H           9.2397    0.0518   -1.0991 H       1  UNL1        0.0000
     36 H           8.2923    2.4498   -0.7360 H       1  UNL1        0.0000
     37 H           5.7696    2.5430   -0.3682 H       1  UNL1        0.0000
     38 H           1.6349    2.3379    0.1547 H       1  UNL1        0.0000
     39 H          -3.6962    2.4194   -1.6475 H       1  UNL1        0.0000
     40 H          -5.8962    2.5643   -2.7031 H       1  UNL1        0.0000
     41 H          -7.6452    0.7514   -2.4935 H       1  UNL1        0.0000
     42 H          -7.8965   -1.9174   -1.1719 H       1  UNL1        0.0000
     43 H          -4.2138   -2.2333    0.6254 H       1  UNL1        0.0000
     44 H          -3.2569   -0.2631    4.2976 H       1  UNL1        0.0000
     45 H          -0.7932   -0.3702    4.6335 H       1  UNL1        0.0000
@<TRIPOS>BOND
     1     1     2    1
     2     2     3    2
     3     3     4    1
     4     4     5    2
     5     5     6    1
     6     6     7   ar
     7     7     8   ar
     8     8     9   ar
     9     9    10    1
    10    10    11   ar
    11    11    12   ar
    12    12    13    1
    13    13    14   ar
    14    14    15   ar
    15    15    16   ar
    16    16    17   ar
    17    17    18   ar
    18    18    19   ar
    19    19    20   ar
    20    20    21   ar
    21    12    22   ar
    22    22    23   ar
    23    23    24   ar
    24    24    25   ar
    25    25    26   ar
    26    26    27   ar
    27     9    28   ar
    28    28    29   ar
    29    29    30   ar
    30    30    31   ar
    31    31    32   ar
    32     5     1    1
    33    32     6   ar
    34    27    10   ar
    35    32    28   ar
    36    21    13   ar
    37    27    22   ar
    38    21    17   ar
    39     1    33    1
    40     1    34    1
    41     2    35    1
    42     3    36    1
    43     4    37    1
    44     8    38    1
    45    14    39    1
    46    15    40    1
    47    16    41    1
    48    18    42    1
    49    20    43    1
    50    24    44    1
    51    25    45    1
