@<TRIPOS>MOLECULE
*****
 42 48 0 0 0
SMALL
GASTEIGER

@<TRIPOS>ATOM
      1 SI          6.2378   -1.5727    1.3015 Si      1  UNL1        0.0000
      2 C           7.8163   -0.7700    0.6747 C.2     1  UNL1        0.0000
      3 C           7.5370    0.3172   -0.0640 C.2     1  UNL1        0.0000
      4 C           6.1209    0.6170   -0.2069 C.2     1  UNL1        0.0000
      5 C           5.2626   -0.2263    0.4150 C.2     1  UNL1        0.0000
      6 C           3.8079   -0.0966    0.3906 C.ar    1  UNL1        0.0000
      7 N           3.2839    0.9610   -0.3198 N.ar    1  UNL1        0.0000
      8 C           1.9352    1.1809   -0.4113 C.ar    1  UNL1        0.0000
      9 C           0.9180    0.4188    0.1568 C.ar    1  UNL1        0.0000
     10 C          -0.4894    0.7120    0.0216 C.ar    1  UNL1        0.0000
     11 S          -1.5727   -0.3199   -0.8204 S.2     1  UNL1        0.0000
     12 C          -2.9399    0.6948   -0.5235 C.ar    1  UNL1        0.0000
     13 C          -4.2487    0.3646   -0.9973 C.ar    1  UNL1        0.0000
     14 S          -5.2682    1.4750   -1.8629 S.2     1  UNL1        0.0000
     15 C          -6.5593    0.3256   -2.0468 C.ar    1  UNL1        0.0000
     16 C          -6.1693   -0.8198   -1.4533 C.ar    1  UNL1        0.0000
     17 C          -6.6274   -2.1321   -1.1849 C.ar    1  UNL1        0.0000
     18 C          -5.6026   -2.7888   -0.4707 C.ar    1  UNL1        0.0000
     19 N          -4.5032   -1.9572   -0.2668 N.ar    1  UNL1        0.0000
     20 C          -4.9155   -0.8079   -0.8824 C.ar    1  UNL1        0.0000
     21 C          -2.5023    1.7730    0.1766 C.ar    1  UNL1        0.0000
     22 C          -3.1326    2.9264    0.7196 C.ar    1  UNL1        0.0000
     23 C          -2.2394    3.7665    1.3933 C.ar    1  UNL1        0.0000
     24 S          -0.5651    3.2411    1.4451 S.2     1  UNL1        0.0000
     25 C          -1.1430    1.8140    0.4983 C.ar    1  UNL1        0.0000
     26 C           1.3865   -0.6849    0.9089 C.ar    1  UNL1        0.0000
     27 N           0.6314   -1.5766    1.5783 N.ar    1  UNL1        0.0000
     28 S           1.6655   -2.6548    2.2856 S.2     1  UNL1        0.0000
     29 N           3.1221   -2.0524    1.7873 N.ar    1  UNL1        0.0000
     30 C           2.8751   -0.9624    1.0365 C.ar    1  UNL1        0.0000
     31 H           6.1558   -1.4864    2.7817 H       1  UNL1        0.0000
     32 H           6.0605   -2.9212    0.7054 H       1  UNL1        0.0000
     33 H           8.7906   -1.1694    0.9067 H       1  UNL1        0.0000
     34 H           8.2884    0.9425   -0.5302 H       1  UNL1        0.0000
     35 H           5.8075    1.4779   -0.7879 H       1  UNL1        0.0000
     36 H           1.6857    2.0581   -1.0093 H       1  UNL1        0.0000
     37 H          -7.4761    0.5781   -2.5593 H       1  UNL1        0.0000
     38 H          -7.5767   -2.5716   -1.4611 H       1  UNL1        0.0000
     39 H          -5.5706   -3.8003   -0.0859 H       1  UNL1        0.0000
     40 H          -3.6194   -2.1267    0.2001 H       1  UNL1        0.0000
     41 H          -4.1887    3.1548    0.6395 H       1  UNL1        0.0000
     42 H          -2.4784    4.6992    1.8865 H       1  UNL1        0.0000
@<TRIPOS>BOND
     1     1     2    1
     2     2     3    2
     3     3     4    1
     4     4     5    2
     5     5     6    1
     6     6     7   ar
     7     7     8   ar
     8     8     9   ar
     9     9    10    1
    10    10    11   ar
    11    11    12   ar
    12    12    13    1
    13    13    14   ar
    14    14    15   ar
    15    15    16   ar
    16    16    17   ar
    17    17    18   ar
    18    18    19   ar
    19    19    20   ar
    20    12    21   ar
    21    21    22   ar
    22    22    23   ar
    23    23    24   ar
    24    24    25   ar
    25     9    26   ar
    26    26    27   ar
    27    27    28   ar
    28    28    29   ar
    29    29    30   ar
    30     5     1    1
    31    30     6   ar
    32    25    10   ar
    33    30    26   ar
    34    20    13   ar
    35    25    21   ar
    36    20    16   ar
    37     1    31    1
    38     1    32    1
    39     2    33    1
    40     3    34    1
    41     4    35    1
    42     8    36    1
    43    15    37    1
    44    17    38    1
    45    18    39    1
    46    19    40    1
    47    22    41    1
    48    23    42    1
