@<TRIPOS>MOLECULE
*****
 42 47 0 0 0
SMALL
GASTEIGER

@<TRIPOS>ATOM
      1 SI         -4.6122    2.4338   -1.3553 Si      1  UNL1        0.0000
      2 C          -6.3391    2.5706   -0.6054 C.2     1  UNL1        0.0000
      3 C          -6.5732    1.5668    0.2599 C.2     1  UNL1        0.0000
      4 C          -5.4788    0.6203    0.4203 C.2     1  UNL1        0.0000
      5 C          -4.3788    0.8891   -0.3117 C.2     1  UNL1        0.0000
      6 C          -3.2162    0.0841   -0.3340 C.ar    1  UNL1        0.0000
      7 S          -1.6735    0.7510    0.1097 S.2     1  UNL1        0.0000
      8 C          -0.8178   -0.7379   -0.1112 C.ar    1  UNL1        0.0000
      9 C           0.5957   -0.8240    0.1288 C.ar    1  UNL1        0.0000
     10 C           1.3950   -1.8978    0.4687 C.ar    1  UNL1        0.0000
     11 C           2.7307   -1.4306    0.5788 C.ar    1  UNL1        0.0000
     12 C           2.7315   -0.0759    0.3123 C.ar    1  UNL1        0.0000
     13 N           1.4263    0.2710    0.0520 N.ar    1  UNL1        0.0000
     14 C           3.8098    0.8693    0.2912 C.ar    1  UNL1        0.0000
     15 S           3.5647    2.5626   -0.0698 S.2     1  UNL1        0.0000
     16 C           5.2414    2.9690    0.1015 C.ar    1  UNL1        0.0000
     17 C           5.9076    1.8411    0.4161 C.ar    1  UNL1        0.0000
     18 N           7.2487    1.7234    0.6377 N.ar    1  UNL1        0.0000
     19 C           7.3587    0.3631    0.9140 C.ar    1  UNL1        0.0000
     20 C           6.1046   -0.2816    0.8513 C.ar    1  UNL1        0.0000
     21 C           5.1347    0.7047    0.5190 C.ar    1  UNL1        0.0000
     22 C          -1.7044   -1.6895   -0.5211 C.ar    1  UNL1        0.0000
     23 SI         -1.6381   -3.5064   -1.0212 Si      1  UNL1        0.0000
     24 C          -3.5155   -3.4490   -1.3397 C.2     1  UNL1        0.0000
     25 C          -4.0151   -2.2199   -1.0904 C.2     1  UNL1        0.0000
     26 C          -3.0545   -1.2477   -0.6481 C.ar    1  UNL1        0.0000
     27 H          -3.7557    3.5762   -0.9463 H       1  UNL1        0.0000
     28 H          -4.6800    2.1627   -2.8139 H       1  UNL1        0.0000
     29 H          -7.0074    3.3742   -0.8707 H       1  UNL1        0.0000
     30 H          -7.4982    1.4467    0.8105 H       1  UNL1        0.0000
     31 H          -5.5761   -0.2262    1.0898 H       1  UNL1        0.0000
     32 H           1.0685   -2.9140    0.6404 H       1  UNL1        0.0000
     33 H           3.5939   -2.0300    0.8340 H       1  UNL1        0.0000
     34 H           1.1168    1.2072   -0.1701 H       1  UNL1        0.0000
     35 H           5.6138    3.9742   -0.0353 H       1  UNL1        0.0000
     36 H           7.9535    2.4496    0.6037 H       1  UNL1        0.0000
     37 H           8.3341   -0.0496    1.1378 H       1  UNL1        0.0000
     38 H           5.9402   -1.3354    1.0287 H       1  UNL1        0.0000
     39 H          -0.9034   -3.7688   -2.2840 H       1  UNL1        0.0000
     40 H          -1.3179   -4.4328    0.0942 H       1  UNL1        0.0000
     41 H          -4.0510   -4.3203   -1.6801 H       1  UNL1        0.0000
     42 H          -5.0632   -1.9733   -1.2173 H       1  UNL1        0.0000
@<TRIPOS>BOND
     1     1     2    1
     2     2     3    2
     3     3     4    1
     4     4     5    2
     5     5     6    1
     6     6     7   ar
     7     7     8   ar
     8     8     9    1
     9     9    10   ar
    10    10    11   ar
    11    11    12   ar
    12    12    13   ar
    13    12    14    1
    14    14    15   ar
    15    15    16   ar
    16    16    17   ar
    17    17    18   ar
    18    18    19   ar
    19    19    20   ar
    20    20    21   ar
    21     8    22   ar
    22    22    23    1
    23    23    24    1
    24    24    25    2
    25    25    26    1
    26     5     1    1
    27    26     6   ar
    28    13     9   ar
    29    21    14   ar
    30    26    22   ar
    31    21    17   ar
    32     1    27    1
    33     1    28    1
    34     2    29    1
    35     3    30    1
    36     4    31    1
    37    10    32    1
    38    11    33    1
    39    13    34    1
    40    16    35    1
    41    18    36    1
    42    19    37    1
    43    20    38    1
    44    23    39    1
    45    23    40    1
    46    24    41    1
    47    25    42    1
