@<TRIPOS>MOLECULE
*****
 47 53 0 0 0
SMALL
GASTEIGER

@<TRIPOS>ATOM
      1 SI          6.5343   -1.1600    1.1641 Si      1  UNL1        0.0000
      2 C           7.4717   -2.5502    0.3049 C.2     1  UNL1        0.0000
      3 C           6.8049   -2.9882   -0.7790 C.2     1  UNL1        0.0000
      4 C           5.5421   -2.3135   -1.0447 C.2     1  UNL1        0.0000
      5 C           5.2205   -1.3384   -0.1706 C.2     1  UNL1        0.0000
      6 C           4.0447   -0.5578   -0.2134 C.ar    1  UNL1        0.0000
      7 S           2.4757   -1.3088   -0.2278 S.2     1  UNL1        0.0000
      8 C           1.6367    0.1856   -0.2404 C.ar    1  UNL1        0.0000
      9 C           0.1959    0.2593   -0.2504 C.ar    1  UNL1        0.0000
     10 C          -0.5896   -0.0012   -1.3960 C.ar    1  UNL1        0.0000
     11 C          -2.0177    0.0787   -1.4127 C.ar    1  UNL1        0.0000
     12 C          -2.8113    0.4199   -0.2878 C.ar    1  UNL1        0.0000
     13 C          -4.2556    0.4956   -0.3277 C.ar    1  UNL1        0.0000
     14 C          -4.9704    1.5908   -0.8781 C.ar    1  UNL1        0.0000
     15 C          -6.3999    1.6791   -0.9260 C.ar    1  UNL1        0.0000
     16 C          -7.2675    0.6814   -0.4337 C.ar    1  UNL1        0.0000
     17 C          -6.5652   -0.3983    0.1009 C.ar    1  UNL1        0.0000
     18 C          -7.1964   -1.4935    0.6366 C.ar    1  UNL1        0.0000
     19 S          -6.0599   -2.6511    1.2044 S.2     1  UNL1        0.0000
     20 C          -4.7208   -1.6820    0.7290 C.ar    1  UNL1        0.0000
     21 C          -5.1262   -0.4982    0.1557 C.ar    1  UNL1        0.0000
     22 C          -2.0259    0.6799    0.8521 C.ar    1  UNL1        0.0000
     23 C          -2.5395    1.0446    2.0761 C.ar    1  UNL1        0.0000
     24 S          -1.3028    1.2714    3.2448 S.2     1  UNL1        0.0000
     25 C          -0.0653    0.8895    2.1174 C.ar    1  UNL1        0.0000
     26 C          -0.5780    0.6017    0.8728 C.ar    1  UNL1        0.0000
     27 C           2.5104    1.2347   -0.2596 C.ar    1  UNL1        0.0000
     28 S           2.2471    3.0217   -0.3066 S.2     1  UNL1        0.0000
     29 C           3.9994    3.1295   -0.3124 C.ar    1  UNL1        0.0000
     30 C           4.6958    1.9164   -0.2811 C.ar    1  UNL1        0.0000
     31 C           3.8331    0.7865   -0.2408 C.ar    1  UNL1        0.0000
     32 H           7.2709    0.1279    1.0844 H       1  UNL1        0.0000
     33 H           6.0674   -1.5604    2.5150 H       1  UNL1        0.0000
     34 H           8.4167   -2.9112    0.6787 H       1  UNL1        0.0000
     35 H           7.1565   -3.7844   -1.4239 H       1  UNL1        0.0000
     36 H           4.9353   -2.6028   -1.8947 H       1  UNL1        0.0000
     37 H          -0.0876   -0.2750   -2.3250 H       1  UNL1        0.0000
     38 H          -2.5227   -0.1439   -2.3546 H       1  UNL1        0.0000
     39 H          -4.4012    2.4272   -1.2881 H       1  UNL1        0.0000
     40 H          -6.8401    2.5729   -1.3700 H       1  UNL1        0.0000
     41 H          -8.3450    0.7668   -0.4796 H       1  UNL1        0.0000
     42 H          -8.2557   -1.6889    0.7297 H       1  UNL1        0.0000
     43 H          -3.7167   -2.0442    0.9036 H       1  UNL1        0.0000
     44 H          -3.5721    1.1901    2.3637 H       1  UNL1        0.0000
     45 H           0.9657    0.9041    2.4431 H       1  UNL1        0.0000
     46 H           4.4305    4.1210   -0.3458 H       1  UNL1        0.0000
     47 H           5.7780    1.8756   -0.2969 H       1  UNL1        0.0000
@<TRIPOS>BOND
     1     1     2    1
     2     2     3    2
     3     3     4    1
     4     4     5    2
     5     5     6    1
     6     6     7   ar
     7     7     8   ar
     8     8     9    1
     9     9    10   ar
    10    10    11   ar
    11    11    12   ar
    12    12    13    1
    13    13    14   ar
    14    14    15   ar
    15    15    16   ar
    16    16    17   ar
    17    17    18   ar
    18    18    19   ar
    19    19    20   ar
    20    20    21   ar
    21    12    22   ar
    22    22    23   ar
    23    23    24   ar
    24    24    25   ar
    25    25    26   ar
    26     8    27   ar
    27    27    28   ar
    28    28    29   ar
    29    29    30   ar
    30    30    31   ar
    31     5     1    1
    32    31     6   ar
    33    26     9   ar
    34    31    27   ar
    35    21    13   ar
    36    26    22   ar
    37    21    17   ar
    38     1    32    1
    39     1    33    1
    40     2    34    1
    41     3    35    1
    42     4    36    1
    43    10    37    1
    44    11    38    1
    45    14    39    1
    46    15    40    1
    47    16    41    1
    48    18    42    1
    49    20    43    1
    50    23    44    1
    51    25    45    1
    52    29    46    1
    53    30    47    1
