@<TRIPOS>MOLECULE
*****
 40 45 0 0 0
SMALL
GASTEIGER

@<TRIPOS>ATOM
      1 SI         -5.5317    2.1930    0.4851 Si      1  UNL1        0.0000
      2 C          -7.2976    1.5723    0.3724 C.2     1  UNL1        0.0000
      3 C          -7.3283    0.2565    0.1012 C.2     1  UNL1        0.0000
      4 C          -6.0266   -0.3820   -0.0418 C.2     1  UNL1        0.0000
      5 C          -4.9485    0.4183    0.1141 C.2     1  UNL1        0.0000
      6 C          -3.5915   -0.0031    0.0156 C.ar    1  UNL1        0.0000
      7 S          -2.2447    1.1089    0.2303 S.2     1  UNL1        0.0000
      8 C          -1.0060   -0.0744   -0.0225 C.ar    1  UNL1        0.0000
      9 C           0.4321    0.2225    0.0252 C.ar    1  UNL1        0.0000
     10 C           0.9240    1.5077    0.2840 C.ar    1  UNL1        0.0000
     11 C           2.3011    1.7620    0.3236 C.ar    1  UNL1        0.0000
     12 C           3.1967    0.7223    0.1025 C.ar    1  UNL1        0.0000
     13 N           2.7545   -0.5267   -0.1494 N.ar    1  UNL1        0.0000
     14 C           1.4119   -0.7456   -0.1821 C.ar    1  UNL1        0.0000
     15 C           4.6492    0.8891    0.1235 C.ar    1  UNL1        0.0000
     16 S           5.4547    2.4062    0.4269 S.2     1  UNL1        0.0000
     17 C           7.0479    1.7347    0.2749 C.ar    1  UNL1        0.0000
     18 C           6.9084    0.4209    0.0071 C.ar    1  UNL1        0.0000
     19 C           7.7020   -0.7103   -0.2318 C.ar    1  UNL1        0.0000
     20 C           6.7884   -1.7502   -0.4365 C.ar    1  UNL1        0.0000
     21 O           5.4642   -1.3679   -0.3462 O.2     1  UNL1        0.0000
     22 C           5.6143   -0.0393   -0.0754 C.ar    1  UNL1        0.0000
     23 C          -1.6361   -1.2456   -0.2560 C.ar    1  UNL1        0.0000
     24 O          -1.0548   -2.4538   -0.5081 O.2     1  UNL1        0.0000
     25 C          -2.1764   -3.2389   -0.6581 C.ar    1  UNL1        0.0000
     26 C          -3.3801   -2.5461   -0.5056 C.ar    1  UNL1        0.0000
     27 C          -3.0139   -1.2103   -0.2362 C.ar    1  UNL1        0.0000
     28 H          -5.1928    2.6392    1.8601 H       1  UNL1        0.0000
     29 H          -5.2142    3.1479   -0.6067 H       1  UNL1        0.0000
     30 H          -8.1423    2.2275    0.5148 H       1  UNL1        0.0000
     31 H          -8.2424   -0.3146   -0.0086 H       1  UNL1        0.0000
     32 H          -5.9939   -1.4399   -0.2604 H       1  UNL1        0.0000
     33 H           0.2552    2.3458    0.4618 H       1  UNL1        0.0000
     34 H           2.6380    2.7725    0.5276 H       1  UNL1        0.0000
     35 H           1.1672   -1.7820   -0.3922 H       1  UNL1        0.0000
     36 H           7.9343    2.3417    0.3912 H       1  UNL1        0.0000
     37 H           8.7784   -0.7949   -0.2588 H       1  UNL1        0.0000
     38 H           6.9230   -2.8018   -0.6531 H       1  UNL1        0.0000
     39 H          -1.9606   -4.2778   -0.8722 H       1  UNL1        0.0000
     40 H          -4.3633   -2.9838   -0.5859 H       1  UNL1        0.0000
@<TRIPOS>BOND
     1     1     2    1
     2     2     3    2
     3     3     4    1
     4     4     5    2
     5     5     6    1
     6     6     7   ar
     7     7     8   ar
     8     8     9    1
     9     9    10   ar
    10    10    11   ar
    11    11    12   ar
    12    12    13   ar
    13    13    14   ar
    14    12    15    1
    15    15    16   ar
    16    16    17   ar
    17    17    18   ar
    18    18    19   ar
    19    19    20   ar
    20    20    21   ar
    21    21    22   ar
    22     8    23   ar
    23    23    24   ar
    24    24    25   ar
    25    25    26   ar
    26    26    27   ar
    27     5     1    1
    28    27     6   ar
    29    14     9   ar
    30    22    15   ar
    31    27    23   ar
    32    22    18   ar
    33     1    28    1
    34     1    29    1
    35     2    30    1
    36     3    31    1
    37     4    32    1
    38    10    33    1
    39    11    34    1
    40    14    35    1
    41    17    36    1
    42    19    37    1
    43    20    38    1
    44    25    39    1
    45    26    40    1
