@<TRIPOS>MOLECULE
*****
 35 39 0 0 0
SMALL
GASTEIGER

@<TRIPOS>ATOM
      1 SI          4.7025    1.5736    0.8034 Si      1  UNL1        0.0000
      2 C           6.2539    1.2242   -0.2131 C.2     1  UNL1        0.0000
      3 C           5.9868    0.3991   -1.2420 C.2     1  UNL1        0.0000
      4 C           4.6020   -0.0378   -1.3423 C.2     1  UNL1        0.0000
      5 C           3.7792    0.4461   -0.3895 C.2     1  UNL1        0.0000
      6 C           2.4084    0.1525   -0.2815 C.ar    1  UNL1        0.0000
      7 S           1.1452    1.3375   -0.2935 S.2     1  UNL1        0.0000
      8 C          -0.1420    0.1635   -0.1482 C.ar    1  UNL1        0.0000
      9 C          -1.5293    0.5555   -0.0942 C.ar    1  UNL1        0.0000
     10 C          -2.0919    1.7357   -0.5420 C.ar    1  UNL1        0.0000
     11 C          -3.5009    1.7971   -0.3235 C.ar    1  UNL1        0.0000
     12 C          -3.9984    0.6658    0.2964 C.ar    1  UNL1        0.0000
     13 S          -2.7312   -0.4534    0.5939 S.2     1  UNL1        0.0000
     14 C          -5.3650    0.3806    0.6726 C.ar    1  UNL1        0.0000
     15 C          -5.8722   -0.7083    1.3659 C.ar    1  UNL1        0.0000
     16 N          -7.2385   -0.7195    1.5868 N.ar    1  UNL1        0.0000
     17 C          -7.7649    0.3596    1.0550 C.ar    1  UNL1        0.0000
     18 S          -6.6769    1.4311    0.2834 S.2     1  UNL1        0.0000
     19 C           0.4503   -1.0551   -0.0979 C.ar    1  UNL1        0.0000
     20 C           0.1485   -2.4426    0.0037 C.ar    1  UNL1        0.0000
     21 C           1.3712   -3.1446   -0.0095 C.ar    1  UNL1        0.0000
     22 N           2.4545   -2.2793   -0.1176 N.ar    1  UNL1        0.0000
     23 C           1.8286   -1.0644   -0.1723 C.ar    1  UNL1        0.0000
     24 H           4.8200    1.0097    2.1714 H       1  UNL1        0.0000
     25 H           4.3074    3.0021    0.7140 H       1  UNL1        0.0000
     26 H           7.2046    1.6652    0.0410 H       1  UNL1        0.0000
     27 H           6.7283    0.0713   -1.9608 H       1  UNL1        0.0000
     28 H           4.2913   -0.6939   -2.1471 H       1  UNL1        0.0000
     29 H          -1.5278    2.5301   -1.0163 H       1  UNL1        0.0000
     30 H          -4.1077    2.6465   -0.6122 H       1  UNL1        0.0000
     31 H          -5.2871   -1.5386    1.7434 H       1  UNL1        0.0000
     32 H          -8.8261    0.5664    1.1010 H       1  UNL1        0.0000
     33 H          -0.8275   -2.9033    0.0784 H       1  UNL1        0.0000
     34 H           1.5539   -4.2099    0.0519 H       1  UNL1        0.0000
     35 H           3.4506   -2.4623   -0.1468 H       1  UNL1        0.0000
@<TRIPOS>BOND
     1     1     2    1
     2     2     3    2
     3     3     4    1
     4     4     5    2
     5     5     6    1
     6     6     7   ar
     7     7     8   ar
     8     8     9    1
     9     9    10   ar
    10    10    11   ar
    11    11    12   ar
    12    12    13   ar
    13    12    14    1
    14    14    15   ar
    15    15    16   ar
    16    16    17   ar
    17    17    18   ar
    18     8    19   ar
    19    19    20   ar
    20    20    21   ar
    21    21    22   ar
    22    22    23   ar
    23     5     1    1
    24    23     6   ar
    25    13     9   ar
    26    18    14   ar
    27    23    19   ar
    28     1    24    1
    29     1    25    1
    30     2    26    1
    31     3    27    1
    32     4    28    1
    33    10    29    1
    34    11    30    1
    35    15    31    1
    36    17    32    1
    37    20    33    1
    38    21    34    1
    39    22    35    1
