@<TRIPOS>MOLECULE
*****
 35 38 0 0 0
SMALL
GASTEIGER

@<TRIPOS>ATOM
      1 SI         -2.2814   -0.0593    0.8540 Si      1  UNL1        0.0000
      2 C          -3.6045    0.1533   -0.4513 C.2     1  UNL1        0.0000
      3 C          -3.0536    0.2816   -1.6739 C.2     1  UNL1        0.0000
      4 C          -1.5972    0.2281   -1.7040 C.2     1  UNL1        0.0000
      5 C          -0.9784    0.0549   -0.5121 C.2     1  UNL1        0.0000
      6 C           0.4699   -0.0236   -0.2987 C.ar    1  UNL1        0.0000
      7 C           1.0732   -0.2567    0.9353 C.ar    1  UNL1        0.0000
      8 C           2.4690   -0.3113    1.0254 C.ar    1  UNL1        0.0000
      9 C           3.2528   -0.1339   -0.1130 C.ar    1  UNL1        0.0000
     10 C           2.5690    0.0865   -1.3020 C.ar    1  UNL1        0.0000
     11 N           1.2181    0.1468   -1.4163 N.ar    1  UNL1        0.0000
     12 C           4.7136   -0.1845   -0.0685 C.ar    1  UNL1        0.0000
     13 C           5.6292   -0.6110   -1.0182 C.ar    1  UNL1        0.0000
     14 C           6.9312   -0.4435   -0.4887 C.ar    1  UNL1        0.0000
     15 C           6.7910    0.0913    0.7693 C.ar    1  UNL1        0.0000
     16 N           5.4522    0.2477    1.0138 N.ar    1  UNL1        0.0000
     17 C          -4.9862    0.1709   -0.1513 C.ar    1  UNL1        0.0000
     18 C          -6.0862    0.3173   -0.9941 C.ar    1  UNL1        0.0000
     19 C          -7.2607    0.2671   -0.2066 C.ar    1  UNL1        0.0000
     20 C          -6.8352    0.0926    1.0833 C.ar    1  UNL1        0.0000
     21 O          -5.4837    0.0338    1.1303 O.2     1  UNL1        0.0000
     22 H          -2.2619   -1.3998    1.4979 H       1  UNL1        0.0000
     23 H          -2.1631    1.0816    1.8008 H       1  UNL1        0.0000
     24 H          -3.6048    0.4167   -2.5959 H       1  UNL1        0.0000
     25 H          -1.0680    0.3256   -2.6461 H       1  UNL1        0.0000
     26 H           0.4966   -0.4089    1.8403 H       1  UNL1        0.0000
     27 H           2.9222   -0.5168    1.9910 H       1  UNL1        0.0000
     28 H           3.1002    0.2389   -2.2377 H       1  UNL1        0.0000
     29 H           5.3870   -1.0148   -1.9935 H       1  UNL1        0.0000
     30 H           7.8674   -0.6849   -0.9754 H       1  UNL1        0.0000
     31 H           7.5263    0.3778    1.5092 H       1  UNL1        0.0000
     32 H           5.0630    0.6457    1.8576 H       1  UNL1        0.0000
     33 H          -6.0405    0.4466   -2.0666 H       1  UNL1        0.0000
     34 H          -8.2853    0.3481   -0.5400 H       1  UNL1        0.0000
     35 H          -7.3412   -0.0038    2.0336 H       1  UNL1        0.0000
@<TRIPOS>BOND
     1     1     2    1
     2     2     3    2
     3     3     4    1
     4     4     5    2
     5     5     6    1
     6     6     7   ar
     7     7     8   ar
     8     8     9   ar
     9     9    10   ar
    10    10    11   ar
    11     9    12    1
    12    12    13   ar
    13    13    14   ar
    14    14    15   ar
    15    15    16   ar
    16     2    17    1
    17    17    18   ar
    18    18    19   ar
    19    19    20   ar
    20    20    21   ar
    21     5     1    1
    22    11     6   ar
    23    16    12   ar
    24    21    17   ar
    25     1    22    1
    26     1    23    1
    27     3    24    1
    28     4    25    1
    29     7    26    1
    30     8    27    1
    31    10    28    1
    32    13    29    1
    33    14    30    1
    34    15    31    1
    35    16    32    1
    36    18    33    1
    37    19    34    1
    38    20    35    1
