@<TRIPOS>MOLECULE
*****
 38 43 0 0 0
SMALL
GASTEIGER

@<TRIPOS>ATOM
      1 SI         -5.1062    2.0327    0.2374 Si      1  UNL1        0.0000
      2 C          -6.7866    1.2865    0.6378 C.2     1  UNL1        0.0000
      3 C          -6.7112   -0.0530    0.7331 C.2     1  UNL1        0.0000
      4 C          -5.3882   -0.6175    0.5073 C.2     1  UNL1        0.0000
      5 C          -4.4121    0.2767    0.2424 C.2     1  UNL1        0.0000
      6 C          -3.0676   -0.0690   -0.0349 C.ar    1  UNL1        0.0000
      7 S          -1.7100    0.9135    0.5082 S.2     1  UNL1        0.0000
      8 C          -0.5164   -0.1405   -0.1495 C.ar    1  UNL1        0.0000
      9 C           0.9010    0.0905   -0.0441 C.ar    1  UNL1        0.0000
     10 C           1.5555    1.2087   -0.5593 C.ar    1  UNL1        0.0000
     11 N           2.8959    1.4857   -0.5022 N.ar    1  UNL1        0.0000
     12 C           3.7771    0.6296    0.1098 C.ar    1  UNL1        0.0000
     13 C           5.1971    0.9794    0.1247 C.ar    1  UNL1        0.0000
     14 C           6.3156    0.1691    0.2417 C.ar    1  UNL1        0.0000
     15 C           7.5416    0.8972    0.2182 C.ar    1  UNL1        0.0000
     16 C           7.3321    2.2486    0.0816 C.ar    1  UNL1        0.0000
     17 S           5.6716    2.6308   -0.0181 S.2     1  UNL1        0.0000
     18 C           3.2527   -0.5559    0.6936 C.ar    1  UNL1        0.0000
     19 N           3.9132   -1.5276    1.3531 N.ar    1  UNL1        0.0000
     20 S           2.7903   -2.6487    1.8233 S.2     1  UNL1        0.0000
     21 N           1.4073   -1.9648    1.2299 N.ar    1  UNL1        0.0000
     22 C           1.7622   -0.8229    0.6120 C.ar    1  UNL1        0.0000
     23 C          -1.1491   -1.1597   -0.7569 C.ar    1  UNL1        0.0000
     24 O          -0.5794   -2.1948   -1.4351 O.2     1  UNL1        0.0000
     25 C          -1.7181   -2.8776   -1.8176 C.ar    1  UNL1        0.0000
     26 C          -2.9132   -2.2779   -1.4022 C.ar    1  UNL1        0.0000
     27 C          -2.5211   -1.1261   -0.6931 C.ar    1  UNL1        0.0000
     28 H          -4.6032    2.8730    1.3531 H       1  UNL1        0.0000
     29 H          -5.0907    2.6599   -1.1084 H       1  UNL1        0.0000
     30 H          -7.6631    1.9012    0.7682 H       1  UNL1        0.0000
     31 H          -7.5573   -0.6904    0.9601 H       1  UNL1        0.0000
     32 H          -5.2427   -1.6895    0.5665 H       1  UNL1        0.0000
     33 H           0.9849    1.9762   -1.0833 H       1  UNL1        0.0000
     34 H           6.2680   -0.9093    0.3367 H       1  UNL1        0.0000
     35 H           8.5246    0.4492    0.2962 H       1  UNL1        0.0000
     36 H           8.0741    3.0336    0.0336 H       1  UNL1        0.0000
     37 H          -1.5186   -3.7757   -2.3878 H       1  UNL1        0.0000
     38 H          -3.9100   -2.6412   -1.6058 H       1  UNL1        0.0000
@<TRIPOS>BOND
     1     1     2    1
     2     2     3    2
     3     3     4    1
     4     4     5    2
     5     5     6    1
     6     6     7   ar
     7     7     8   ar
     8     8     9    1
     9     9    10   ar
    10    10    11   ar
    11    11    12   ar
    12    12    13    1
    13    13    14   ar
    14    14    15   ar
    15    15    16   ar
    16    16    17   ar
    17    12    18   ar
    18    18    19   ar
    19    19    20   ar
    20    20    21   ar
    21    21    22   ar
    22     8    23   ar
    23    23    24   ar
    24    24    25   ar
    25    25    26   ar
    26    26    27   ar
    27     5     1    1
    28    27     6   ar
    29    22     9   ar
    30    27    23   ar
    31    17    13   ar
    32    22    18   ar
    33     1    28    1
    34     1    29    1
    35     2    30    1
    36     3    31    1
    37     4    32    1
    38    10    33    1
    39    14    34    1
    40    15    35    1
    41    16    36    1
    42    25    37    1
    43    26    38    1
