@<TRIPOS>MOLECULE
*****
 46 52 0 0 0
SMALL
GASTEIGER

@<TRIPOS>ATOM
      1 SI          6.3134    0.0986   -2.2209 Si      1  UNL1        0.0000
      2 C           7.7217   -0.7570   -1.3123 C.2     1  UNL1        0.0000
      3 C           7.3312   -1.1716   -0.0933 C.2     1  UNL1        0.0000
      4 C           5.9471   -0.8754    0.2492 C.2     1  UNL1        0.0000
      5 C           5.2458   -0.2237   -0.7013 C.2     1  UNL1        0.0000
      6 C           3.8912    0.1676   -0.6042 C.ar    1  UNL1        0.0000
      7 S           2.6711   -0.9248    0.0352 S.2     1  UNL1        0.0000
      8 C           1.3664    0.1899   -0.1798 C.ar    1  UNL1        0.0000
      9 C           0.0029   -0.0918    0.1482 C.ar    1  UNL1        0.0000
     10 S          -1.2750    0.2038   -0.9818 S.2     1  UNL1        0.0000
     11 C          -2.5086   -0.3639    0.0878 C.ar    1  UNL1        0.0000
     12 C          -3.8893   -0.3318   -0.3482 C.ar    1  UNL1        0.0000
     13 C          -4.4239   -1.0778   -1.4283 C.ar    1  UNL1        0.0000
     14 C          -5.8085   -1.0361   -1.8295 C.ar    1  UNL1        0.0000
     15 C          -6.8000   -0.2471   -1.1982 C.ar    1  UNL1        0.0000
     16 C          -6.2463    0.4742   -0.1489 C.ar    1  UNL1        0.0000
     17 C          -6.8926    1.3459    0.6848 C.ar    1  UNL1        0.0000
     18 O          -5.9987    1.8639    1.5831 O.2     1  UNL1        0.0000
     19 C          -4.7739    1.3142    1.3125 C.ar    1  UNL1        0.0000
     20 C          -4.8799    0.4418    0.2596 C.ar    1  UNL1        0.0000
     21 C          -1.9499   -0.7832    1.2707 C.ar    1  UNL1        0.0000
     22 C          -2.5520   -1.3385    2.4485 C.2     1  UNL1        0.0000
     23 C          -1.6916   -1.6293    3.4478 C.2     1  UNL1        0.0000
     24 SI          0.1053   -1.2055    2.9617 Si      1  UNL1        0.0000
     25 C          -0.5346   -0.6229    1.2856 C.ar    1  UNL1        0.0000
     26 C           1.8793    1.3200   -0.7063 C.ar    1  UNL1        0.0000
     27 O           1.2075    2.4656   -1.0163 O.2     1  UNL1        0.0000
     28 C           2.2538    3.2369   -1.4810 C.ar    1  UNL1        0.0000
     29 C           3.4966    2.5946   -1.4512 C.ar    1  UNL1        0.0000
     30 C           3.2358    1.3104   -0.9345 C.ar    1  UNL1        0.0000
     31 H           6.5907    1.5418   -2.4387 H       1  UNL1        0.0000
     32 H           5.8820   -0.6663   -3.4172 H       1  UNL1        0.0000
     33 H           8.6958   -0.8760   -1.7594 H       1  UNL1        0.0000
     34 H           7.9775   -1.6911    0.6037 H       1  UNL1        0.0000
     35 H           5.5532   -1.1699    1.2144 H       1  UNL1        0.0000
     36 H          -3.7558   -1.7310   -1.9921 H       1  UNL1        0.0000
     37 H          -6.1066   -1.6548   -2.6772 H       1  UNL1        0.0000
     38 H          -7.8340   -0.2232   -1.5106 H       1  UNL1        0.0000
     39 H          -7.9082    1.7017    0.7812 H       1  UNL1        0.0000
     40 H          -3.9654    1.6471    1.9480 H       1  UNL1        0.0000
     41 H          -3.6202   -1.5114    2.5212 H       1  UNL1        0.0000
     42 H          -1.9217   -2.0523    4.4124 H       1  UNL1        0.0000
     43 H           0.9329   -2.4366    2.9065 H       1  UNL1        0.0000
     44 H           0.6394   -0.1194    3.8208 H       1  UNL1        0.0000
     45 H           1.9585    4.2296   -1.7955 H       1  UNL1        0.0000
     46 H           4.4376    3.0289   -1.7566 H       1  UNL1        0.0000
@<TRIPOS>BOND
     1     1     2    1
     2     2     3    2
     3     3     4    1
     4     4     5    2
     5     5     6    1
     6     6     7   ar
     7     7     8   ar
     8     8     9    1
     9     9    10   ar
    10    10    11   ar
    11    11    12    1
    12    12    13   ar
    13    13    14   ar
    14    14    15   ar
    15    15    16   ar
    16    16    17   ar
    17    17    18   ar
    18    18    19   ar
    19    19    20   ar
    20    11    21   ar
    21    21    22    1
    22    22    23    2
    23    23    24    1
    24    24    25    1
    25     8    26   ar
    26    26    27   ar
    27    27    28   ar
    28    28    29   ar
    29    29    30   ar
    30     5     1    1
    31    30     6   ar
    32    25     9   ar
    33    30    26   ar
    34    20    12   ar
    35    25    21   ar
    36    20    16   ar
    37     1    31    1
    38     1    32    1
    39     2    33    1
    40     3    34    1
    41     4    35    1
    42    13    36    1
    43    14    37    1
    44    15    38    1
    45    17    39    1
    46    19    40    1
    47    22    41    1
    48    23    42    1
    49    24    43    1
    50    24    44    1
    51    28    45    1
    52    29    46    1
