@<TRIPOS>MOLECULE
*****
 40 45 0 0 0
SMALL
GASTEIGER

@<TRIPOS>ATOM
      1 SI         -5.5972   -0.8532    1.2126 Si      1  UNL1        0.0000
      2 C          -6.6327    0.5935    1.8418 C.2     1  UNL1        0.0000
      3 C          -5.9434    1.7460    1.7763 C.2     1  UNL1        0.0000
      4 C          -4.5855    1.6299    1.2639 C.2     1  UNL1        0.0000
      5 C          -4.1948    0.3832    0.9194 C.2     1  UNL1        0.0000
      6 C          -2.9093    0.0130    0.4289 C.ar    1  UNL1        0.0000
      7 S          -1.4906    0.8523    0.9831 S.2     1  UNL1        0.0000
      8 C          -0.4122   -0.0883    0.0405 C.ar    1  UNL1        0.0000
      9 C           1.0058    0.1492    0.0874 C.ar    1  UNL1        0.0000
     10 S           2.0817   -1.0697    0.6416 S.2     1  UNL1        0.0000
     11 C           3.4796   -0.0845    0.4182 C.ar    1  UNL1        0.0000
     12 C           4.7968   -0.6281    0.7192 C.ar    1  UNL1        0.0000
     13 N           5.7700   -0.3808   -0.1589 N.ar    1  UNL1        0.0000
     14 C           6.9446   -0.9065    0.1708 C.ar    1  UNL1        0.0000
     15 N           7.2000   -1.6386    1.2532 N.ar    1  UNL1        0.0000
     16 C           6.1442   -1.8240    2.0429 C.ar    1  UNL1        0.0000
     17 N           4.9191   -1.3511    1.8368 N.ar    1  UNL1        0.0000
     18 C           3.1232    1.1575   -0.0595 C.ar    1  UNL1        0.0000
     19 N           4.0134    2.1639   -0.3088 N.ar    1  UNL1        0.0000
     20 C           3.3872    3.2759   -0.7749 C.ar    1  UNL1        0.0000
     21 C           2.0094    3.3991   -0.9728 C.ar    1  UNL1        0.0000
     22 N           1.0947    2.4254   -0.7252 N.ar    1  UNL1        0.0000
     23 C           1.6947    1.2912   -0.2546 C.ar    1  UNL1        0.0000
     24 C          -1.0953   -1.0321   -0.6888 C.ar    1  UNL1        0.0000
     25 N          -0.4903   -1.9181   -1.5360 N.ar    1  UNL1        0.0000
     26 C          -1.4013   -2.7318   -2.1292 C.ar    1  UNL1        0.0000
     27 C          -2.7805   -2.6849   -1.9114 C.ar    1  UNL1        0.0000
     28 N          -3.4118   -1.8187   -1.0755 N.ar    1  UNL1        0.0000
     29 C          -2.5242   -0.9783   -0.4620 C.ar    1  UNL1        0.0000
     30 H          -6.2199   -1.4146   -0.0132 H       1  UNL1        0.0000
     31 H          -5.3135   -1.8167    2.3076 H       1  UNL1        0.0000
     32 H          -7.6437    0.4545    2.1895 H       1  UNL1        0.0000
     33 H          -6.3420    2.7059    2.0813 H       1  UNL1        0.0000
     34 H          -3.9677    2.5166    1.1871 H       1  UNL1        0.0000
     35 H           7.7721   -0.7233   -0.5065 H       1  UNL1        0.0000
     36 H           6.2979   -2.4166    2.9385 H       1  UNL1        0.0000
     37 H           4.0467    4.1101   -0.9979 H       1  UNL1        0.0000
     38 H           1.5940    4.3289   -1.3512 H       1  UNL1        0.0000
     39 H          -0.9821   -3.4596   -2.8183 H       1  UNL1        0.0000
     40 H          -3.4374   -3.3767   -2.4317 H       1  UNL1        0.0000
@<TRIPOS>BOND
     1     1     2    1
     2     2     3    2
     3     3     4    1
     4     4     5    2
     5     5     6    1
     6     6     7   ar
     7     7     8   ar
     8     8     9    1
     9     9    10   ar
    10    10    11   ar
    11    11    12    1
    12    12    13   ar
    13    13    14   ar
    14    14    15   ar
    15    15    16   ar
    16    16    17   ar
    17    11    18   ar
    18    18    19   ar
    19    19    20   ar
    20    20    21   ar
    21    21    22   ar
    22    22    23   ar
    23     8    24   ar
    24    24    25   ar
    25    25    26   ar
    26    26    27   ar
    27    27    28   ar
    28    28    29   ar
    29     5     1    1
    30    29     6   ar
    31    23     9   ar
    32    29    24   ar
    33    17    12   ar
    34    23    18   ar
    35     1    30    1
    36     1    31    1
    37     2    32    1
    38     3    33    1
    39     4    34    1
    40    14    35    1
    41    16    36    1
    42    20    37    1
    43    21    38    1
    44    26    39    1
    45    27    40    1
