@<TRIPOS>MOLECULE
*****
 30 33 0 0 0
SMALL
GASTEIGER

@<TRIPOS>ATOM
      1 BR          4.6533   -2.5893    1.1860 Br      1  UNL1        0.0000
      2 C           3.9071   -1.0554    0.3522 C.ar    1  UNL1        0.0000
      3 B           2.3604   -0.8854    0.3553 B       1  UNL1        0.0000
      4 C           1.4064   -1.9044    1.0038 C.ar    1  UNL1        0.0000
      5 C           0.0915   -1.6499    0.9432 C.ar    1  UNL1        0.0000
      6 C           4.6222   -0.1144   -0.2359 C.ar    1  UNL1        0.0000
      7 C           3.9879    1.0397   -0.8584 C.ar    1  UNL1        0.0000
      8 C           2.6853    1.2584   -0.8992 C.ar    1  UNL1        0.0000
      9 N           1.7687    0.3477   -0.3154 N.ar    1  UNL1        0.0000
     10 C           0.3593    0.4986   -0.3103 C.ar    1  UNL1        0.0000
     11 C          -0.4516   -0.4641    0.2965 C.ar    1  UNL1        0.0000
     12 C          -1.8279   -0.2459    0.2608 C.ar    1  UNL1        0.0000
     13 C          -2.6994   -1.1289    0.8256 C.ar    1  UNL1        0.0000
     14 C          -4.0773   -0.9312    0.8018 C.ar    1  UNL1        0.0000
     15 C          -4.5693    0.1817    0.1936 C.ar    1  UNL1        0.0000
     16 C          -3.7501    1.1079   -0.3927 C.ar    1  UNL1        0.0000
     17 C          -2.3784    0.8789   -0.3504 C.ar    1  UNL1        0.0000
     18 C          -1.5422    1.8017   -0.9359 C.ar    1  UNL1        0.0000
     19 C          -0.1659    1.6187   -0.9204 C.ar    1  UNL1        0.0000
     20 H           1.8089   -2.7712    1.4763 H       1  UNL1        0.0000
     21 H          -0.5263   -2.4059    1.4185 H       1  UNL1        0.0000
     22 H           5.7216   -0.2205   -0.2466 H       1  UNL1        0.0000
     23 H           4.6755    1.7674   -1.3220 H       1  UNL1        0.0000
     24 H           2.3176    2.1400   -1.3824 H       1  UNL1        0.0000
     25 H          -2.3177   -2.0160    1.3111 H       1  UNL1        0.0000
     26 H          -4.7363   -1.6369    1.2508 H       1  UNL1        0.0000
     27 H          -5.6476    0.3655    0.1582 H       1  UNL1        0.0000
     28 H          -4.1552    1.9871   -0.8720 H       1  UNL1        0.0000
     29 H          -1.9654    2.6765   -1.4115 H       1  UNL1        0.0000
     30 H           0.4448    2.3497   -1.3808 H       1  UNL1        0.0000
@<TRIPOS>BOND
     1     1     2    1
     2     2     3   ar
     3     3     4   ar
     4     4     5   ar
     5     2     6   ar
     6     6     7   ar
     7     7     8   ar
     8     8     9   ar
     9     9    10   ar
    10    10    11   ar
    11    11    12   ar
    12    12    13   ar
    13    13    14   ar
    14    14    15   ar
    15    15    16   ar
    16    16    17   ar
    17    17    18   ar
    18    18    19   ar
    19     9     3   ar
    20    11     5   ar
    21    19    10   ar
    22    17    12   ar
    23     4    20    1
    24     5    21    1
    25     6    22    1
    26     7    23    1
    27     8    24    1
    28    13    25    1
    29    14    26    1
    30    15    27    1
    31    16    28    1
    32    18    29    1
    33    19    30    1
