@<TRIPOS>MOLECULE
*****
 38 40 0 0 0
SMALL
GASTEIGER

@<TRIPOS>ATOM
      1 BR          7.5282    0.0456   -0.3855 Br      1  UNL1       -0.0503
      2 C           5.6510    0.2383   -0.2786 C.ar    1  UNL1        0.0179
      3 C           5.1011    1.2016    0.5634 C.ar    1  UNL1       -0.0472
      4 C           3.7124    1.3433    0.6401 C.ar    1  UNL1       -0.0535
      5 C           2.8670    0.5172   -0.1131 C.ar    1  UNL1       -0.0238
      6 C           1.4152    0.7197   -0.0241 C.2     1  UNL1       -0.0402
      7 C           0.5127   -0.2757   -0.0405 C.2     1  UNL1        0.0025
      8 N          -0.8857   -0.2263    0.0439 N.pl3   1  UNL1       -0.2759
      9 C          -1.5990   -1.4029    0.4760 C.ar    1  UNL1        0.0382
     10 C          -1.0784   -2.2535    1.4688 C.ar    1  UNL1       -0.0400
     11 C          -1.7752   -3.3926    1.8835 C.ar    1  UNL1       -0.0600
     12 C          -3.0064   -3.7038    1.3129 C.ar    1  UNL1       -0.0616
     13 C          -3.5426   -2.8768    0.3298 C.ar    1  UNL1       -0.0600
     14 C          -2.8460   -1.7373   -0.0833 C.ar    1  UNL1       -0.0400
     15 C          -1.5902    0.9721   -0.3257 C.ar    1  UNL1        0.0382
     16 C          -2.6205    1.4739    0.4888 C.ar    1  UNL1       -0.0400
     17 C          -3.3160    2.6333    0.1363 C.ar    1  UNL1       -0.0600
     18 C          -2.9953    3.3082   -1.0392 C.ar    1  UNL1       -0.0616
     19 C          -1.9815    2.8247   -1.8631 C.ar    1  UNL1       -0.0600
     20 C          -1.2855    1.6656   -1.5097 C.ar    1  UNL1       -0.0400
     21 C           3.4379   -0.4363   -0.9675 C.ar    1  UNL1       -0.0535
     22 C           4.8264   -0.5800   -1.0469 C.ar    1  UNL1       -0.0472
     23 H           5.7391    1.8466    1.1614 H       1  UNL1        0.0629
     24 H           3.2957    2.1004    1.3014 H       1  UNL1        0.0624
     25 H           1.0884    1.7490    0.0991 H       1  UNL1        0.0636
     26 H           0.8681   -1.3025   -0.1048 H       1  UNL1        0.0787
     27 H          -0.1321   -2.0209    1.9511 H       1  UNL1        0.0636
     28 H          -1.3567   -4.0315    2.6567 H       1  UNL1        0.0618
     29 H          -3.5482   -4.5892    1.6350 H       1  UNL1        0.0618
     30 H          -4.5020   -3.1168   -0.1209 H       1  UNL1        0.0618
     31 H          -3.2789   -1.1178   -0.8654 H       1  UNL1        0.0636
     32 H          -2.8753    0.9661    1.4162 H       1  UNL1        0.0636
     33 H          -4.1056    3.0080    0.7822 H       1  UNL1        0.0618
     34 H          -3.5366    4.2097   -1.3140 H       1  UNL1        0.0618
     35 H          -1.7335    3.3453   -2.7843 H       1  UNL1        0.0618
     36 H          -0.5125    1.2921   -2.1767 H       1  UNL1        0.0636
     37 H           2.8104   -1.0703   -1.5898 H       1  UNL1        0.0624
     38 H           5.2502   -1.3266   -1.7131 H       1  UNL1        0.0629
@<TRIPOS>BOND
     1     1     2    1
     2     2     3   ar
     3     3     4   ar
     4     4     5   ar
     5     5     6    1
     6     6     7    2
     7     7     8    1
     8     8     9    1
     9     9    10   ar
    10    10    11   ar
    11    11    12   ar
    12    12    13   ar
    13    13    14   ar
    14     8    15    1
    15    15    16   ar
    16    16    17   ar
    17    17    18   ar
    18    18    19   ar
    19    19    20   ar
    20     5    21   ar
    21    21    22   ar
    22    22     2   ar
    23    14     9   ar
    24    20    15   ar
    25     3    23    1
    26     4    24    1
    27     6    25    1
    28     7    26    1
    29    10    27    1
    30    11    28    1
    31    12    29    1
    32    13    30    1
    33    14    31    1
    34    16    32    1
    35    17    33    1
    36    18    34    1
    37    19    35    1
    38    20    36    1
    39    21    37    1
    40    22    38    1
