@<TRIPOS>MOLECULE
*****
 32 33 0 0 0
SMALL
GASTEIGER

@<TRIPOS>ATOM
      1 BR          5.0605   -1.6740   -0.7411 Br      1  UNL1        0.0000
      2 C           3.5448   -0.5745   -0.3100 C.2     1  UNL1        0.0000
      3 C           2.3192   -0.9985   -0.5598 C.2     1  UNL1        0.0000
      4 N           1.2036   -0.1936   -0.2445 N.pl3   1  UNL1        0.5000
      5 C           1.3958    1.0755    0.3428 C.2     1  UNL1        0.0000
      6 C           2.7766    1.4940    0.5972 C.2     1  UNL1        0.0000
      7 C           3.8016    0.7233    0.2933 C.2     1  UNL1        0.0000
      8 N           0.2601    1.6789    0.5653 N.2     1  UNL1        0.5000
      9 B          -0.3284   -0.3870   -0.4033 B       1  UNL1        0.0000
     10 O          -0.5706   -0.5846   -1.8064 O.3     1  UNL1        0.0000
     11 C          -0.7868   -1.8774   -2.2030 C.3     1  UNL1        0.0000
     12 O          -0.7005   -1.4802    0.4563 O.3     1  UNL1        0.0000
     13 C           0.1415   -1.6727    1.5400 C.3     1  UNL1        0.0000
     14 N          -0.8279    0.9137    0.1662 N.2     1  UNL1        1.0000
     15 C          -2.0774    1.2826    0.2764 C.2     1  UNL1        0.0000
     16 C          -2.4321    2.6041    0.8621 C.3     1  UNL1        0.0000
     17 C          -3.1913    0.4116   -0.1720 C.3     1  UNL1        0.0000
     18 H           2.1525   -1.9723   -1.0113 H       1  UNL1        0.0000
     19 H           2.9726    2.4586    1.0459 H       1  UNL1        0.0000
     20 H           4.8397    1.0560    0.4929 H       1  UNL1        0.0000
     21 H          -1.8052   -2.2302   -1.9644 H       1  UNL1        0.0000
     22 H          -0.6434   -1.9037   -3.3221 H       1  UNL1        0.0000
     23 H          -0.0345   -2.5881   -1.7997 H       1  UNL1        0.0000
     24 H          -0.4283   -2.2677    2.2875 H       1  UNL1        0.0000
     25 H           1.0490   -2.1864    1.2108 H       1  UNL1        0.0000
     26 H           0.3265   -0.6654    1.9811 H       1  UNL1        0.0000
     27 H          -1.7815    2.8364    1.7427 H       1  UNL1        0.0000
     28 H          -2.2817    3.4391    0.1462 H       1  UNL1        0.0000
     29 H          -3.4607    2.6238    1.2077 H       1  UNL1        0.0000
     30 H          -2.8790   -0.3383   -0.9112 H       1  UNL1        0.0000
     31 H          -3.5948   -0.0631    0.7708 H       1  UNL1        0.0000
     32 H          -4.0200    1.0601   -0.5362 H       1  UNL1        0.0000
@<TRIPOS>UNITY_ATOM_ATTR
9 1
charge -1
14 1
charge 1
@<TRIPOS>BOND
     1     1     2    1
     2     2     3    2
     3     3     4    1
     4     4     5    1
     5     5     6    1
     6     6     7    2
     7     5     8    2
     8     4     9    1
     9     9    10    1
    10    10    11    1
    11     9    12    1
    12    12    13    1
    13     9    14    1
    14    14    15    2
    15    15    16    1
    16    15    17    1
    17     7     2    1
    18    14     8    1
    19     3    18    1
    20     6    19    1
    21     7    20    1
    22    11    21    1
    23    11    22    1
    24    11    23    1
    25    13    24    1
    26    13    25    1
    27    13    26    1
    28    16    27    1
    29    16    28    1
    30    16    29    1
    31    17    30    1
    32    17    31    1
    33    17    32    1
