@<TRIPOS>MOLECULE
*****
 30 33 0 0 0
SMALL
GASTEIGER

@<TRIPOS>ATOM
      1 BR          6.2765    0.0720    0.3811 Br      1  UNL1       -0.0085
      2 C           4.3750    0.0859    0.3503 C.ar    1  UNL1        0.1703
      3 C           3.5664    0.5279    1.3717 C.ar    1  UNL1       -0.0089
      4 C           2.2342    0.3578    0.9236 C.ar    1  UNL1       -0.0160
      5 C           2.3111   -0.1793   -0.3480 C.ar    1  UNL1        0.1446
      6 C           1.2754   -0.5947   -1.3681 C.3     1  UNL1        0.1450
      7 N           0.4776    0.5157   -1.8853 N.pl3   1  UNL1       -0.3194
      8 C          -0.6450    0.8564   -1.1091 C.ar    1  UNL1        0.0383
      9 C          -1.2462    2.1096   -1.2644 C.ar    1  UNL1       -0.0401
     10 C          -2.3955    2.4389   -0.5454 C.ar    1  UNL1       -0.0594
     11 C          -2.9769    1.5039    0.3114 C.ar    1  UNL1       -0.0539
     12 C          -2.4228    0.2223    0.4463 C.ar    1  UNL1       -0.0144
     13 C          -3.0088   -0.7554    1.2637 C.ar    1  UNL1       -0.0539
     14 C          -2.4586   -2.0351    1.3406 C.ar    1  UNL1       -0.0594
     15 C          -1.3092   -2.3475    0.6145 C.ar    1  UNL1       -0.0401
     16 C          -0.6765   -1.3761   -0.1680 C.ar    1  UNL1        0.0383
     17 C          -1.2507   -0.0994   -0.2777 C.ar    1  UNL1        0.0239
     18 N           0.4460   -1.7208   -0.9425 N.pl3   1  UNL1       -0.3194
     19 O           3.6234   -0.3452   -0.6974 O.2     1  UNL1       -0.4496
     20 H           3.8938    0.9241    2.3226 H       1  UNL1        0.0661
     21 H           1.3218    0.5947    1.4550 H       1  UNL1        0.0653
     22 H           1.8416   -0.9669   -2.2319 H       1  UNL1        0.0790
     23 H           1.0528    1.3184   -2.1095 H       1  UNL1        0.1482
     24 H          -0.8220    2.8387   -1.9492 H       1  UNL1        0.0636
     25 H          -2.8471    3.4201   -0.6652 H       1  UNL1        0.0618
     26 H          -3.8793    1.7744    0.8547 H       1  UNL1        0.0624
     27 H          -3.9119   -0.5337    1.8277 H       1  UNL1        0.0624
     28 H          -2.9349   -2.7949    1.9547 H       1  UNL1        0.0618
     29 H          -0.9095   -3.3567    0.6625 H       1  UNL1        0.0636
     30 H           0.9995   -2.4553   -0.5187 H       1  UNL1        0.1482
@<TRIPOS>BOND
     1     1     2    1
     2     2     3   ar
     3     3     4   ar
     4     4     5   ar
     5     5     6    1
     6     6     7    1
     7     7     8    1
     8     8     9   ar
     9     9    10   ar
    10    10    11   ar
    11    11    12   ar
    12    12    13   ar
    13    13    14   ar
    14    14    15   ar
    15    15    16   ar
    16    16    17   ar
    17    16    18    1
    18     5    19   ar
    19    19     2   ar
    20    18     6    1
    21    17     8   ar
    22    17    12   ar
    23     3    20    1
    24     4    21    1
    25     6    22    1
    26     7    23    1
    27     9    24    1
    28    10    25    1
    29    11    26    1
    30    13    27    1
    31    14    28    1
    32    15    29    1
    33    18    30    1
