@<TRIPOS>MOLECULE
*****
 31 33 0 0 0
SMALL
GASTEIGER

@<TRIPOS>ATOM
      1 BR          6.2795   -0.9957   -0.9407 Br      1  UNL1       -0.0503
      2 C           4.5541   -0.6048   -0.2753 C.ar    1  UNL1        0.0179
      3 C           3.9124    0.5694   -0.6654 C.ar    1  UNL1       -0.0471
      4 C           2.6361    0.8585   -0.1735 C.ar    1  UNL1       -0.0500
      5 C           1.9933   -0.0302    0.6997 C.ar    1  UNL1        0.0193
      6 C           0.6655    0.2551    1.2324 C.ar    1  UNL1        0.1642
      7 N           0.3560    0.3039    2.5146 N.ar    1  UNL1       -0.1292
      8 N          -0.9740    0.6167    2.6340 N.ar    1  UNL1       -0.1340
      9 C          -1.4739    0.7284    1.4238 C.ar    1  UNL1        0.1337
     10 N          -0.4830    0.4797    0.5086 N.ar    1  UNL1       -0.3109
     11 C          -0.6698    0.4101   -0.9233 C.3     1  UNL1        0.0264
     12 C          -1.6955   -0.6389   -1.3518 C.3     1  UNL1       -0.0349
     13 C          -3.1493   -0.2148   -1.1357 C.3     1  UNL1       -0.0511
     14 C          -3.5721   -0.0880    0.3292 C.3     1  UNL1       -0.0461
     15 C          -2.8803    1.0507    1.0744 C.3     1  UNL1        0.0075
     16 C           2.6610   -1.1961    1.0982 C.ar    1  UNL1       -0.0500
     17 C           3.9366   -1.4879    0.6077 C.ar    1  UNL1       -0.0471
     18 H           4.3994    1.2691   -1.3397 H       1  UNL1        0.0629
     19 H           2.1572    1.7913   -0.4621 H       1  UNL1        0.0625
     20 H          -0.9473    1.4125   -1.2683 H       1  UNL1        0.0493
     21 H           0.2873    0.1585   -1.3876 H       1  UNL1        0.0493
     22 H          -1.5621   -0.8220   -2.4254 H       1  UNL1        0.0282
     23 H          -1.5051   -1.5922   -0.8433 H       1  UNL1        0.0282
     24 H          -3.3405    0.7301   -1.6592 H       1  UNL1        0.0266
     25 H          -3.7945   -0.9654   -1.6093 H       1  UNL1        0.0266
     26 H          -4.6527    0.1017    0.3470 H       1  UNL1        0.0269
     27 H          -3.4123   -1.0423    0.8466 H       1  UNL1        0.0269
     28 H          -3.4307    1.2436    2.0036 H       1  UNL1        0.0344
     29 H          -2.9207    1.9774    0.4902 H       1  UNL1        0.0344
     30 H           2.1876   -1.8804    1.8010 H       1  UNL1        0.0625
     31 H           4.4377   -2.3978    0.9274 H       1  UNL1        0.0629
@<TRIPOS>BOND
     1     1     2    1
     2     2     3   ar
     3     3     4   ar
     4     4     5   ar
     5     5     6    1
     6     6     7   ar
     7     7     8   ar
     8     8     9   ar
     9     9    10   ar
    10    10    11    1
    11    11    12    1
    12    12    13    1
    13    13    14    1
    14    14    15    1
    15     5    16   ar
    16    16    17   ar
    17    17     2   ar
    18    10     6   ar
    19    15     9    1
    20     3    18    1
    21     4    19    1
    22    11    20    1
    23    11    21    1
    24    12    22    1
    25    12    23    1
    26    13    24    1
    27    13    25    1
    28    14    26    1
    29    14    27    1
    30    15    28    1
    31    15    29    1
    32    16    30    1
    33    17    31    1
