@<TRIPOS>MOLECULE
*****
 34 37 0 0 0
SMALL
GASTEIGER

@<TRIPOS>ATOM
      1 BR          8.0563    2.1097    2.8276 Br      1  UNL1       -0.0085
      2 C           7.1169    1.0434    1.5632 C.ar    1  UNL1        0.1708
      3 C           7.6865    0.0963    0.7444 C.ar    1  UNL1       -0.0086
      4 C           6.6274   -0.4457   -0.0248 C.ar    1  UNL1       -0.0115
      5 C           5.4739    0.2045    0.3726 C.ar    1  UNL1        0.1765
      6 C           4.0397   -0.0477   -0.1892 C.ar    1  UNL1        0.2375
      7 N           3.7828   -0.9464   -1.1513 N.ar    1  UNL1       -0.0527
      8 O           2.4030   -0.8391   -1.3326 O.2     1  UNL1       -0.3340
      9 C           1.9709    0.1160   -0.4578 C.ar    1  UNL1        0.2654
     10 C           0.5217    0.4316   -0.4757 C.3     1  UNL1        0.1677
     11 O          -0.1680   -0.7261   -0.0066 O.3     1  UNL1       -0.4825
     12 C          -1.5337   -0.6641    0.0338 C.ar    1  UNL1        0.1218
     13 C          -2.1531   -1.8415    0.4525 C.ar    1  UNL1       -0.0193
     14 C          -3.5441   -1.9221    0.5405 C.ar    1  UNL1       -0.0506
     15 C          -4.3434   -0.8194    0.2105 C.ar    1  UNL1       -0.0177
     16 C          -5.7438   -0.8811    0.2925 C.ar    1  UNL1       -0.0540
     17 C          -6.5265    0.2258   -0.0382 C.ar    1  UNL1       -0.0612
     18 C          -5.9195    1.4067   -0.4542 C.ar    1  UNL1       -0.0612
     19 C          -4.5283    1.4833   -0.5409 C.ar    1  UNL1       -0.0539
     20 C          -3.7242    0.3788   -0.2125 C.ar    1  UNL1       -0.0144
     21 C          -2.3198    0.4422   -0.2956 C.ar    1  UNL1       -0.0122
     22 N           2.9397    0.6425    0.2580 N.ar    1  UNL1       -0.1858
     23 O           5.7783    1.1165    1.3452 O.2     1  UNL1       -0.4450
     24 H           8.7329   -0.1719    0.7051 H       1  UNL1        0.0661
     25 H           6.6900   -1.2185   -0.7792 H       1  UNL1        0.0657
     26 H           0.2182    0.6740   -1.5008 H       1  UNL1        0.0797
     27 H           0.3305    1.2835    0.1868 H       1  UNL1        0.0797
     28 H          -1.5485   -2.7072    0.7135 H       1  UNL1        0.0654
     29 H          -3.9970   -2.8545    0.8698 H       1  UNL1        0.0625
     30 H          -6.2362   -1.7954    0.6165 H       1  UNL1        0.0624
     31 H          -7.6096    0.1647    0.0302 H       1  UNL1        0.0618
     32 H          -6.5282    2.2697   -0.7114 H       1  UNL1        0.0618
     33 H          -4.0759    2.4169   -0.8679 H       1  UNL1        0.0624
     34 H          -1.8689    1.3746   -0.6192 H       1  UNL1        0.0660
@<TRIPOS>BOND
     1     1     2    1
     2     2     3   ar
     3     3     4   ar
     4     4     5   ar
     5     5     6    1
     6     6     7   ar
     7     7     8   ar
     8     8     9   ar
     9     9    10    1
    10    10    11    1
    11    11    12    1
    12    12    13   ar
    13    13    14   ar
    14    14    15   ar
    15    15    16   ar
    16    16    17   ar
    17    17    18   ar
    18    18    19   ar
    19    19    20   ar
    20    20    21   ar
    21     9    22   ar
    22     5    23   ar
    23    23     2   ar
    24    22     6   ar
    25    21    12   ar
    26    20    15   ar
    27     3    24    1
    28     4    25    1
    29    10    26    1
    30    10    27    1
    31    13    28    1
    32    14    29    1
    33    16    30    1
    34    17    31    1
    35    18    32    1
    36    19    33    1
    37    21    34    1
