@<TRIPOS>MOLECULE
*****
 23 24 0 0 0
SMALL
GASTEIGER

@<TRIPOS>ATOM
      1 BR         -4.6220    2.2529    0.2912 Br      1  UNL1       -0.0503
      2 C          -3.1544    1.0736    0.1231 C.ar    1  UNL1        0.0179
      3 C          -2.4093    1.0601   -1.0542 C.ar    1  UNL1       -0.0474
      4 C          -1.3244    0.1890   -1.1790 C.ar    1  UNL1       -0.0542
      5 C          -0.9802   -0.6715   -0.1268 C.ar    1  UNL1       -0.0078
      6 C           0.1973   -1.6071   -0.2509 C.3     1  UNL1        0.1410
      7 O           1.1879   -1.3131    0.7375 O.3     1  UNL1       -0.4059
      8 N           2.0723   -0.3609    0.2303 N.ar    1  UNL1       -0.1772
      9 C           3.2422   -0.6399   -0.4074 C.ar    1  UNL1        0.0638
     10 C           3.7878    0.5943   -0.6794 C.ar    1  UNL1        0.0488
     11 N           2.9868    1.6038   -0.1996 N.ar    1  UNL1       -0.2408
     12 C           1.9706    0.9911    0.3715 C.ar    1  UNL1        0.1322
     13 C          -1.7393   -0.6441    1.0529 C.ar    1  UNL1       -0.0542
     14 C          -2.8244    0.2258    1.1779 C.ar    1  UNL1       -0.0474
     15 H          -2.6618    1.7236   -1.8773 H       1  UNL1        0.0629
     16 H          -0.7476    0.1947   -2.1020 H       1  UNL1        0.0622
     17 H           0.6197   -1.6035   -1.2646 H       1  UNL1        0.0774
     18 H          -0.1517   -2.6308   -0.0704 H       1  UNL1        0.0774
     19 H           3.5713   -1.6487   -0.6033 H       1  UNL1        0.0860
     20 H           4.7189    0.8124   -1.1873 H       1  UNL1        0.0846
     21 H           1.1439    1.4618    0.8846 H       1  UNL1        0.1061
     22 H          -1.4825   -1.2990    1.8838 H       1  UNL1        0.0622
     23 H          -3.4011    0.2355    2.0991 H       1  UNL1        0.0629
@<TRIPOS>BOND
     1     1     2    1
     2     2     3   ar
     3     3     4   ar
     4     4     5   ar
     5     5     6    1
     6     6     7    1
     7     7     8    1
     8     8     9   ar
     9     9    10   ar
    10    10    11   ar
    11    11    12   ar
    12     5    13   ar
    13    13    14   ar
    14    14     2   ar
    15    12     8   ar
    16     3    15    1
    17     4    16    1
    18     6    17    1
    19     6    18    1
    20     9    19    1
    21    10    20    1
    22    12    21    1
    23    13    22    1
    24    14    23    1
