@<TRIPOS>MOLECULE
*****
 36 39 0 0 0
SMALL
GASTEIGER

@<TRIPOS>ATOM
      1 SI          1.9401    0.5521    0.1110 Si      1  UNL1        0.0000
      2 C           0.6266   -0.4488   -0.8563 C.2     1  UNL1        0.0000
      3 C           1.2262   -1.4365   -1.5549 C.2     1  UNL1        0.0000
      4 C           2.6715   -1.5406   -1.4001 C.2     1  UNL1        0.0000
      5 C           3.2374   -0.6053   -0.6115 C.2     1  UNL1        0.0000
      6 C           4.6129   -0.5512   -0.3256 C.ar    1  UNL1        0.0000
      7 C           5.5171   -1.4720    0.1697 C.ar    1  UNL1        0.0000
      8 C           6.7875   -0.8481    0.2186 C.ar    1  UNL1        0.0000
      9 C           6.6336    0.4310   -0.2670 C.ar    1  UNL1        0.0000
     10 N           5.3137    0.6017   -0.5990 N.ar    1  UNL1        0.0000
     11 C          -0.7738   -0.1320   -0.8351 C.2     1  UNL1        0.0000
     12 SI         -1.7699    0.0898    0.7807 Si      1  UNL1        0.0000
     13 C          -3.2986    0.3794   -0.2885 C.2     1  UNL1        0.0000
     14 C          -2.9829    0.3285   -1.5987 C.2     1  UNL1        0.0000
     15 C          -1.5891    0.0297   -1.9013 C.2     1  UNL1        0.0000
     16 C          -4.5912    0.6666    0.1949 C.ar    1  UNL1        0.0000
     17 C          -5.5629    1.5743   -0.1870 C.ar    1  UNL1        0.0000
     18 C          -6.6820    1.4008    0.6633 C.ar    1  UNL1        0.0000
     19 C          -6.3789    0.3773    1.5305 C.ar    1  UNL1        0.0000
     20 N          -5.1168   -0.0705    1.2330 N.ar    1  UNL1        0.0000
     21 H           2.0921    1.9411   -0.3969 H       1  UNL1        0.0000
     22 H           1.7599    0.4129    1.5805 H       1  UNL1        0.0000
     23 H           0.6978   -2.1339   -2.1949 H       1  UNL1        0.0000
     24 H           3.2223   -2.3320   -1.8983 H       1  UNL1        0.0000
     25 H           5.2843   -2.4861    0.4710 H       1  UNL1        0.0000
     26 H           7.7153   -1.2895    0.5602 H       1  UNL1        0.0000
     27 H           7.3477    1.2305   -0.4134 H       1  UNL1        0.0000
     28 H           4.9255    1.4395   -1.0135 H       1  UNL1        0.0000
     29 H          -1.8825   -1.1640    1.5723 H       1  UNL1        0.0000
     30 H          -1.3342    1.2988    1.5256 H       1  UNL1        0.0000
     31 H          -3.6945    0.4774   -2.4035 H       1  UNL1        0.0000
     32 H          -1.2643   -0.0551   -2.9318 H       1  UNL1        0.0000
     33 H          -5.4694    2.2969   -0.9890 H       1  UNL1        0.0000
     34 H          -7.6094    1.9584    0.6382 H       1  UNL1        0.0000
     35 H          -6.9525   -0.0768    2.3258 H       1  UNL1        0.0000
     36 H          -4.6584   -0.8442    1.6958 H       1  UNL1        0.0000
@<TRIPOS>BOND
     1     1     2    1
     2     2     3    2
     3     3     4    1
     4     4     5    2
     5     5     6    1
     6     6     7   ar
     7     7     8   ar
     8     8     9   ar
     9     9    10   ar
    10     2    11    1
    11    11    12    1
    12    12    13    1
    13    13    14    2
    14    14    15    1
    15    13    16    1
    16    16    17   ar
    17    17    18   ar
    18    18    19   ar
    19    19    20   ar
    20     5     1    1
    21    10     6   ar
    22    15    11    2
    23    20    16   ar
    24     1    21    1
    25     1    22    1
    26     3    23    1
    27     4    24    1
    28     7    25    1
    29     8    26    1
    30     9    27    1
    31    10    28    1
    32    12    29    1
    33    12    30    1
    34    14    31    1
    35    15    32    1
    36    17    33    1
    37    18    34    1
    38    19    35    1
    39    20    36    1
