@<TRIPOS>MOLECULE
*****
 34 38 0 0 0
SMALL
GASTEIGER

@<TRIPOS>ATOM
      1 C          -8.0571    0.5980    2.6468 C.1     1  UNL1       -0.1134
      2 C          -6.8750    0.5731    2.4384 C.1     1  UNL1       -0.0624
      3 C          -5.4689    0.5506    2.1822 C.ar    1  UNL1        0.0643
      4 C          -4.5059    0.9921    3.0886 C.ar    1  UNL1       -0.0150
      5 C          -3.2156    0.8401    2.5167 C.ar    1  UNL1        0.0587
      6 C          -3.3098    0.3162    1.2742 C.ar    1  UNL1        0.0526
      7 S          -4.8270   -0.0356    0.6751 S.2     1  UNL1       -0.0772
      8 C          -2.0761    0.1934    0.7454 C.ar    1  UNL1        0.0526
      9 S          -1.5414   -0.3617   -0.7332 S.2     1  UNL1       -0.0772
     10 C           0.0747   -0.0081   -0.1893 C.ar    1  UNL1        0.0649
     11 C           1.2138   -0.2476   -1.0164 C.1     1  UNL1       -0.0537
     12 C           2.1745   -0.4466   -1.7094 C.1     1  UNL1       -0.0583
     13 C           3.3142   -0.6797   -2.5326 C.ar    1  UNL1        0.0534
     14 C           3.6633    0.1734   -3.5956 C.ar    1  UNL1       -0.0441
     15 C           4.7963   -0.0484   -4.4136 C.ar    1  UNL1       -0.0584
     16 C           5.6664   -1.1406   -4.2411 C.ar    1  UNL1       -0.0334
     17 C           5.3543   -2.0363   -3.1871 C.ar    1  UNL1        0.1011
     18 N           6.0515   -3.1371   -2.8623 N.ar    1  UNL1       -0.1907
     19 S           5.2721   -3.8200   -1.5647 S.2     1  UNL1        0.1165
     20 N           4.0198   -2.7505   -1.3528 N.ar    1  UNL1       -0.1895
     21 C           4.1500   -1.8058   -2.3026 C.ar    1  UNL1        0.1152
     22 C           0.1503    0.5198    1.0964 C.ar    1  UNL1       -0.0150
     23 C          -1.1583    0.6333    1.6356 C.ar    1  UNL1        0.0587
     24 N          -1.8759    1.0279    2.7326 N.ar    1  UNL1       -0.3420
     25 C          -1.3070    1.6120    3.9187 C.3     1  UNL1        0.0125
     26 H          -9.1063    0.6203    2.8246 H       1  UNL1        0.1232
     27 H          -4.7239    1.3911    4.0708 H       1  UNL1        0.0656
     28 H           3.0383    1.0439   -3.8027 H       1  UNL1        0.0630
     29 H           5.0057    0.6628   -5.2157 H       1  UNL1        0.0619
     30 H           6.5298   -1.2971   -4.8770 H       1  UNL1        0.0640
     31 H           1.0719    0.7961    1.5943 H       1  UNL1        0.0656
     32 H          -1.2516    2.6976    3.7749 H       1  UNL1        0.0456
     33 H          -1.9421    1.3747    4.7783 H       1  UNL1        0.0456
     34 H          -0.3052    1.1987    4.0846 H       1  UNL1        0.0456
@<TRIPOS>BOND
     1     1     2    3
     2     2     3    1
     3     3     4   ar
     4     4     5   ar
     5     5     6   ar
     6     6     7   ar
     7     6     8   ar
     8     8     9   ar
     9     9    10   ar
    10    10    11    1
    11    11    12    3
    12    12    13    1
    13    13    14   ar
    14    14    15   ar
    15    15    16   ar
    16    16    17   ar
    17    17    18   ar
    18    18    19   ar
    19    19    20   ar
    20    20    21   ar
    21    10    22   ar
    22    22    23   ar
    23    23    24   ar
    24    24    25    1
    25     7     3   ar
    26    23     8   ar
    27    24     5   ar
    28    21    13   ar
    29    21    17   ar
    30     1    26    1
    31     4    27    1
    32    14    28    1
    33    15    29    1
    34    16    30    1
    35    22    31    1
    36    25    32    1
    37    25    33    1
    38    25    34    1
