@<TRIPOS>MOLECULE
*****
 54 60 0 0 0
SMALL
GASTEIGER

@<TRIPOS>ATOM
      1 C          10.5606    1.7923    3.9438 C.1     1  UNL1       -0.1134
      2 C           9.5873    1.6443    3.2561 C.1     1  UNL1       -0.0624
      3 C           8.4307    1.4667    2.4357 C.ar    1  UNL1        0.0643
      4 C           8.0346    2.3659    1.4484 C.ar    1  UNL1       -0.0150
      5 C           6.8520    1.8900    0.8243 C.ar    1  UNL1        0.0587
      6 C           6.4704    0.7145    1.3721 C.ar    1  UNL1        0.0526
      7 S           7.3965    0.0774    2.6045 S.2     1  UNL1       -0.0772
      8 C           5.3530    0.2763    0.7595 C.ar    1  UNL1        0.0526
      9 S           4.4211   -1.0907    0.9724 S.2     1  UNL1       -0.0772
     10 C           3.4116   -0.5036   -0.3177 C.ar    1  UNL1        0.0649
     11 C           2.2673   -1.2319   -0.7639 C.1     1  UNL1       -0.0532
     12 C           1.3057   -1.8433   -1.1426 C.1     1  UNL1       -0.0511
     13 C           0.1628   -2.5677   -1.5938 C.ar    1  UNL1        0.0898
     14 S           0.2842   -3.9880   -2.5548 S.2     1  UNL1       -0.0840
     15 C          -1.4195   -4.1804   -2.6292 C.ar    1  UNL1        0.0044
     16 C          -2.0617   -3.1847   -1.9389 C.ar    1  UNL1        0.0982
     17 N          -3.4128   -3.1087   -1.8516 N.ar    1  UNL1       -0.2424
     18 C          -3.8164   -2.0229   -1.1137 C.ar    1  UNL1        0.0976
     19 C          -5.2880   -1.8942   -1.0567 C.ar    1  UNL1        0.0025
     20 C          -6.0787   -2.9733   -0.6219 C.ar    1  UNL1       -0.0525
     21 C          -7.4706   -2.8710   -0.5600 C.ar    1  UNL1       -0.0611
     22 C          -8.0990   -1.6884   -0.9410 C.ar    1  UNL1       -0.0617
     23 C          -7.3384   -0.6126   -1.3913 C.ar    1  UNL1       -0.0611
     24 C          -5.9461   -0.7170   -1.4549 C.ar    1  UNL1       -0.0525
     25 C          -2.9144   -1.1055   -0.4875 C.ar    1  UNL1        0.0976
     26 C          -3.3498    0.0153    0.3724 C.ar    1  UNL1        0.0025
     27 C          -2.9161    1.3264    0.1048 C.ar    1  UNL1       -0.0525
     28 C          -3.3160    2.3981    0.9069 C.ar    1  UNL1       -0.0611
     29 C          -4.1508    2.1765    1.9988 C.ar    1  UNL1       -0.0617
     30 C          -4.5785    0.8845    2.2939 C.ar    1  UNL1       -0.0611
     31 C          -4.1763   -0.1871    1.4918 C.ar    1  UNL1       -0.0525
     32 N          -1.5483   -1.1798   -0.5978 N.ar    1  UNL1       -0.2412
     33 C          -1.1522   -2.2506   -1.3372 C.ar    1  UNL1        0.1124
     34 C           3.8171    0.7123   -0.8623 C.ar    1  UNL1       -0.0150
     35 C           4.9883    1.1596   -0.1970 C.ar    1  UNL1        0.0587
     36 N           5.9215    2.1606   -0.1436 N.ar    1  UNL1       -0.3420
     37 C           5.9469    3.3130   -1.0049 C.3     1  UNL1        0.0125
     38 H          11.4240    1.9173    4.5539 H       1  UNL1        0.1232
     39 H           8.5580    3.2814    1.2057 H       1  UNL1        0.0656
     40 H          -1.8624   -5.0035   -3.1709 H       1  UNL1        0.0716
     41 H          -5.6044   -3.9093   -0.3305 H       1  UNL1        0.0624
     42 H          -8.0617   -3.7174   -0.2199 H       1  UNL1        0.0618
     43 H          -9.1819   -1.6080   -0.8952 H       1  UNL1        0.0618
     44 H          -7.8271    0.3087   -1.6983 H       1  UNL1        0.0618
     45 H          -5.3781    0.1348   -1.8245 H       1  UNL1        0.0624
     46 H          -2.2523    1.5157   -0.7373 H       1  UNL1        0.0624
     47 H          -2.9685    3.4031    0.6819 H       1  UNL1        0.0618
     48 H          -4.4599    3.0086    2.6260 H       1  UNL1        0.0618
     49 H          -5.2212    0.7067    3.1526 H       1  UNL1        0.0618
     50 H          -4.5129   -1.1880    1.7552 H       1  UNL1        0.0624
     51 H           3.3083    1.2242   -1.6689 H       1  UNL1        0.0656
     52 H           6.6261    3.1051   -1.8360 H       1  UNL1        0.0456
     53 H           4.9399    3.5107   -1.3808 H       1  UNL1        0.0456
     54 H           6.2964    4.1791   -0.4361 H       1  UNL1        0.0456
@<TRIPOS>BOND
     1     1     2    3
     2     2     3    1
     3     3     4   ar
     4     4     5   ar
     5     5     6   ar
     6     6     7   ar
     7     6     8   ar
     8     8     9   ar
     9     9    10   ar
    10    10    11    1
    11    11    12    3
    12    12    13    1
    13    13    14   ar
    14    14    15   ar
    15    15    16   ar
    16    16    17   ar
    17    17    18   ar
    18    18    19    1
    19    19    20   ar
    20    20    21   ar
    21    21    22   ar
    22    22    23   ar
    23    23    24   ar
    24    18    25   ar
    25    25    26    1
    26    26    27   ar
    27    27    28   ar
    28    28    29   ar
    29    29    30   ar
    30    30    31   ar
    31    25    32   ar
    32    32    33   ar
    33    10    34   ar
    34    34    35   ar
    35    35    36   ar
    36    36    37    1
    37     7     3   ar
    38    35     8   ar
    39    36     5   ar
    40    33    13   ar
    41    33    16   ar
    42    24    19   ar
    43    31    26   ar
    44     1    38    1
    45     4    39    1
    46    15    40    1
    47    20    41    1
    48    21    42    1
    49    22    43    1
    50    23    44    1
    51    24    45    1
    52    27    46    1
    53    28    47    1
    54    29    48    1
    55    30    49    1
    56    31    50    1
    57    34    51    1
    58    37    52    1
    59    37    53    1
    60    37    54    1
