@<TRIPOS>MOLECULE
*****
 50 54 0 0 0
SMALL
GASTEIGER

@<TRIPOS>ATOM
      1 C           9.3728    0.7799    1.0128 C.1     1  UNL1       -0.1134
      2 C           8.1894    0.7313    0.8210 C.1     1  UNL1       -0.0622
      3 C           6.7774    0.6760    0.6044 C.ar    1  UNL1        0.0660
      4 S           5.8098    2.0781    0.6573 S.2     1  UNL1       -0.0709
      5 C           4.3886    1.1950    0.3363 C.ar    1  UNL1        0.0666
      6 C           3.1131    1.8276    0.2293 C.1     1  UNL1       -0.0530
      7 C           2.0326    2.3437    0.1385 C.1     1  UNL1       -0.0511
      8 C           0.7393    2.9344    0.0316 C.ar    1  UNL1        0.0898
      9 S           0.4944    4.6339   -0.0377 S.2     1  UNL1       -0.0840
     10 C          -1.2103    4.4632   -0.1445 C.ar    1  UNL1        0.0044
     11 C          -1.5795    3.1423   -0.1286 C.ar    1  UNL1        0.0982
     12 N          -2.8730    2.7414   -0.2049 N.ar    1  UNL1       -0.2424
     13 C          -2.9874    1.3732   -0.1759 C.ar    1  UNL1        0.0976
     14 C          -4.3894    0.9224   -0.3099 C.ar    1  UNL1        0.0025
     15 C          -5.3780    1.4139    0.5628 C.ar    1  UNL1       -0.0525
     16 C          -6.7083    1.0003    0.4552 C.ar    1  UNL1       -0.0611
     17 C          -7.0767    0.0924   -0.5345 C.ar    1  UNL1       -0.0617
     18 C          -6.1189   -0.3944   -1.4213 C.ar    1  UNL1       -0.0611
     19 C          -4.7886    0.0221   -1.3142 C.ar    1  UNL1       -0.0525
     20 C          -1.8740    0.4837   -0.0484 C.ar    1  UNL1        0.0976
     21 C          -2.0024   -0.9865    0.0537 C.ar    1  UNL1        0.0025
     22 C          -2.8213   -1.5967    1.0212 C.ar    1  UNL1       -0.0525
     23 C          -2.9307   -2.9887    1.1000 C.ar    1  UNL1       -0.0611
     24 C          -2.2117   -3.7968    0.2224 C.ar    1  UNL1       -0.0617
     25 C          -1.3783   -3.2157   -0.7306 C.ar    1  UNL1       -0.0611
     26 C          -1.2721   -1.8241   -0.8103 C.ar    1  UNL1       -0.0525
     27 N          -0.5664    0.8991    0.0130 N.ar    1  UNL1       -0.2412
     28 C          -0.4566    2.2544   -0.0265 C.ar    1  UNL1        0.1124
     29 C           4.6243   -0.1644    0.2009 C.ar    1  UNL1       -0.0238
     30 C           3.5602   -1.1859   -0.0742 C.3     1  UNL1       -0.0377
     31 C           6.0395   -0.4689    0.3381 C.ar    1  UNL1       -0.0238
     32 C           6.6101   -1.8495    0.2174 C.3     1  UNL1       -0.0377
     33 H          10.4263    0.8290    1.1815 H       1  UNL1        0.1232
     34 H          -1.8515    5.3294   -0.2149 H       1  UNL1        0.0716
     35 H          -5.1094    2.1330    1.3361 H       1  UNL1        0.0624
     36 H          -7.4551    1.3929    1.1413 H       1  UNL1        0.0618
     37 H          -8.1116   -0.2290   -0.6208 H       1  UNL1        0.0618
     38 H          -6.4062   -1.0961   -2.2010 H       1  UNL1        0.0618
     39 H          -4.0644   -0.3634   -2.0299 H       1  UNL1        0.0624
     40 H          -3.3832   -0.9913    1.7305 H       1  UNL1        0.0624
     41 H          -3.5754   -3.4400    1.8513 H       1  UNL1        0.0618
     42 H          -2.2949   -4.8791    0.2872 H       1  UNL1        0.0618
     43 H          -0.8064   -3.8430   -1.4097 H       1  UNL1        0.0618
     44 H          -0.6078   -1.3866   -1.5550 H       1  UNL1        0.0624
     45 H           2.6214   -0.9304    0.4299 H       1  UNL1        0.0278
     46 H           3.8544   -2.1785    0.2810 H       1  UNL1        0.0278
     47 H           3.3738   -1.2481   -1.1509 H       1  UNL1        0.0278
     48 H           7.6926   -1.8364    0.0561 H       1  UNL1        0.0278
     49 H           6.1632   -2.3796   -0.6316 H       1  UNL1        0.0278
     50 H           6.4064   -2.4196    1.1306 H       1  UNL1        0.0278
@<TRIPOS>BOND
     1     1     2    3
     2     2     3    1
     3     3     4   ar
     4     4     5   ar
     5     5     6    1
     6     6     7    3
     7     7     8    1
     8     8     9   ar
     9     9    10   ar
    10    10    11   ar
    11    11    12   ar
    12    12    13   ar
    13    13    14    1
    14    14    15   ar
    15    15    16   ar
    16    16    17   ar
    17    17    18   ar
    18    18    19   ar
    19    13    20   ar
    20    20    21    1
    21    21    22   ar
    22    22    23   ar
    23    23    24   ar
    24    24    25   ar
    25    25    26   ar
    26    20    27   ar
    27    27    28   ar
    28     5    29   ar
    29    29    30    1
    30    29    31   ar
    31    31    32    1
    32    31     3   ar
    33    28     8   ar
    34    28    11   ar
    35    19    14   ar
    36    26    21   ar
    37     1    33    1
    38    10    34    1
    39    15    35    1
    40    16    36    1
    41    17    37    1
    42    18    38    1
    43    19    39    1
    44    22    40    1
    45    23    41    1
    46    24    42    1
    47    25    43    1
    48    26    44    1
    49    30    45    1
    50    30    46    1
    51    30    47    1
    52    32    48    1
    53    32    49    1
    54    32    50    1
