@<TRIPOS>MOLECULE
*****
 85 92 0 0 0
SMALL
GASTEIGER

@<TRIPOS>ATOM
      1 C           2.6040   -1.3472   -1.3398 C.2     1  UNL1       -0.0540
      2 C           1.4902   -1.6804   -0.6663 C.2     1  UNL1       -0.0519
      3 C           0.3032   -2.2562   -1.3084 C.ar    1  UNL1        0.0032
      4 C          -0.1306   -1.9414   -2.6179 C.ar    1  UNL1       -0.0519
      5 C          -1.2767   -2.5148   -3.2156 C.ar    1  UNL1       -0.0519
      6 C          -2.1064   -3.4384   -2.5507 C.ar    1  UNL1        0.0032
      7 C          -3.2763   -4.0330   -3.1881 C.2     1  UNL1       -0.0519
      8 C          -4.5566   -3.6609   -3.0206 C.2     1  UNL1       -0.0540
      9 C          -5.0895   -2.5790   -2.1795 C.ar    1  UNL1       -0.0249
     10 C          -4.5742   -1.2799   -2.2034 C.ar    1  UNL1       -0.0528
     11 C          -5.1560   -0.2674   -1.4287 C.ar    1  UNL1       -0.0395
     12 C          -6.2908   -0.5151   -0.6352 C.ar    1  UNL1        0.0388
     13 N          -6.9224    0.5427    0.1205 N.pl3   1  UNL1       -0.2692
     14 C          -6.9961    1.8840   -0.4146 C.ar    1  UNL1        0.0388
     15 C          -6.8348    3.0038    0.4219 C.ar    1  UNL1       -0.0400
     16 C          -6.8987    4.3029   -0.0917 C.ar    1  UNL1       -0.0600
     17 C          -7.1205    4.5044   -1.4535 C.ar    1  UNL1       -0.0616
     18 C          -7.2907    3.4104   -2.2999 C.ar    1  UNL1       -0.0600
     19 C          -7.2339    2.1122   -1.7838 C.ar    1  UNL1       -0.0400
     20 C          -7.5107    0.2580    1.4092 C.ar    1  UNL1        0.0388
     21 C          -6.8313   -0.5282    2.3575 C.ar    1  UNL1       -0.0400
     22 C          -7.4008   -0.8025    3.6057 C.ar    1  UNL1       -0.0600
     23 C          -8.6596   -0.2966    3.9248 C.ar    1  UNL1       -0.0616
     24 C          -9.3490    0.4830    2.9972 C.ar    1  UNL1       -0.0600
     25 C          -8.7789    0.7616    1.7513 C.ar    1  UNL1       -0.0400
     26 C          -6.8024   -1.8236   -0.6206 C.ar    1  UNL1       -0.0395
     27 C          -6.2118   -2.8393   -1.3838 C.ar    1  UNL1       -0.0528
     28 C          -1.7392   -3.7965   -1.2222 C.ar    1  UNL1        0.1076
     29 N          -2.3623   -4.6748   -0.4163 N.ar    1  UNL1       -0.1902
     30 S          -1.5246   -4.6931    1.0120 S.2     1  UNL1        0.1165
     31 N          -0.3064   -3.6210    0.6759 N.ar    1  UNL1       -0.1902
     32 C          -0.5079   -3.1813   -0.5806 C.ar    1  UNL1        0.1076
     33 C           3.8264   -0.7882   -0.7402 C.ar    1  UNL1       -0.0249
     34 C           5.0426   -0.9852   -1.4041 C.ar    1  UNL1       -0.0528
     35 C           6.2278   -0.4247   -0.9157 C.ar    1  UNL1       -0.0395
     36 C           6.2331    0.3519    0.2539 C.ar    1  UNL1        0.0388
     37 N           7.4517    0.9592    0.7323 N.pl3   1  UNL1       -0.2692
     38 C           8.3689    1.5512   -0.2137 C.ar    1  UNL1        0.0388
     39 C           9.7565    1.3561   -0.0972 C.ar    1  UNL1       -0.0400
     40 C          10.6417    1.9239   -1.0184 C.ar    1  UNL1       -0.0600
     41 C          10.1540    2.6951   -2.0711 C.ar    1  UNL1       -0.0616
     42 C           8.7825    2.9007   -2.2029 C.ar    1  UNL1       -0.0600
     43 C           7.8968    2.3339   -1.2825 C.ar    1  UNL1       -0.0400
     44 C           7.7486    0.9954    2.1454 C.ar    1  UNL1        0.0388
     45 C           7.4516   -0.0984    2.9777 C.ar    1  UNL1       -0.0400
     46 C           7.7528   -0.0655    4.3433 C.ar    1  UNL1       -0.0600
     47 C           8.3529    1.0624    4.9008 C.ar    1  UNL1       -0.0616
     48 C           8.6552    2.1571    4.0943 C.ar    1  UNL1       -0.0600
     49 C           8.3550    2.1237    2.7291 C.ar    1  UNL1       -0.0400
     50 C           5.0132    0.5378    0.9226 C.ar    1  UNL1       -0.0395
     51 C           3.8240   -0.0143    0.4255 C.ar    1  UNL1       -0.0528
     52 H           2.6606   -1.5140   -2.4114 H       1  UNL1        0.0624
     53 H           1.4367   -1.5794    0.4154 H       1  UNL1        0.0624
     54 H           0.4341   -1.2164   -3.2089 H       1  UNL1        0.0624
     55 H          -1.5266   -2.2226   -4.2385 H       1  UNL1        0.0624
     56 H          -3.0560   -4.8795   -3.8345 H       1  UNL1        0.0624
     57 H          -5.3219   -4.2389   -3.5379 H       1  UNL1        0.0624
     58 H          -3.7264   -1.0268   -2.8361 H       1  UNL1        0.0624
     59 H          -4.7133    0.7259   -1.4543 H       1  UNL1        0.0636
     60 H          -6.6379    2.8671    1.4845 H       1  UNL1        0.0636
     61 H          -6.7645    5.1537    0.5725 H       1  UNL1        0.0618
     62 H          -7.1642    5.5141   -1.8546 H       1  UNL1        0.0618
     63 H          -7.4702    3.5648   -3.3627 H       1  UNL1        0.0618
     64 H          -7.3966    1.2735   -2.4591 H       1  UNL1        0.0636
     65 H          -5.8408   -0.9181    2.1344 H       1  UNL1        0.0636
     66 H          -6.8572   -1.4078    4.3271 H       1  UNL1        0.0618
     67 H          -9.1046   -0.5096    4.8943 H       1  UNL1        0.0618
     68 H         -10.3344    0.8727    3.2390 H       1  UNL1        0.0618
     69 H          -9.3418    1.3616    1.0365 H       1  UNL1        0.0636
     70 H          -7.6877   -2.0624   -0.0339 H       1  UNL1        0.0636
     71 H          -6.6452   -3.8367   -1.3515 H       1  UNL1        0.0624
     72 H           5.0856   -1.5747   -2.3164 H       1  UNL1        0.0624
     73 H           7.1549   -0.6098   -1.4537 H       1  UNL1        0.0636
     74 H          10.1557    0.7456    0.7097 H       1  UNL1        0.0636
     75 H          11.7109    1.7568   -0.9155 H       1  UNL1        0.0618
     76 H          10.8426    3.1339   -2.7894 H       1  UNL1        0.0618
     77 H           8.3989    3.5085   -3.0179 H       1  UNL1        0.0618
     78 H           6.8308    2.5179   -1.3942 H       1  UNL1        0.0636
     79 H           7.0008   -0.9963    2.5603 H       1  UNL1        0.0636
     80 H           7.5217   -0.9237    4.9689 H       1  UNL1        0.0618
     81 H           8.5841    1.0882    5.9635 H       1  UNL1        0.0618
     82 H           9.1213    3.0406    4.5249 H       1  UNL1        0.0618
     83 H           8.5878    2.9955    2.1211 H       1  UNL1        0.0636
     84 H           4.9697    1.1468    1.8226 H       1  UNL1        0.0636
     85 H           2.8999    0.1853    0.9613 H       1  UNL1        0.0624
@<TRIPOS>BOND
     1     1     2    2
     2     2     3    1
     3     3     4   ar
     4     4     5   ar
     5     5     6   ar
     6     6     7    1
     7     7     8    2
     8     8     9    1
     9     9    10   ar
    10    10    11   ar
    11    11    12   ar
    12    12    13    1
    13    13    14    1
    14    14    15   ar
    15    15    16   ar
    16    16    17   ar
    17    17    18   ar
    18    18    19   ar
    19    13    20    1
    20    20    21   ar
    21    21    22   ar
    22    22    23   ar
    23    23    24   ar
    24    24    25   ar
    25    12    26   ar
    26    26    27   ar
    27     6    28   ar
    28    28    29   ar
    29    29    30   ar
    30    30    31   ar
    31    31    32   ar
    32     1    33    1
    33    33    34   ar
    34    34    35   ar
    35    35    36   ar
    36    36    37    1
    37    37    38    1
    38    38    39   ar
    39    39    40   ar
    40    40    41   ar
    41    41    42   ar
    42    42    43   ar
    43    37    44    1
    44    44    45   ar
    45    45    46   ar
    46    46    47   ar
    47    47    48   ar
    48    48    49   ar
    49    36    50   ar
    50    50    51   ar
    51    32     3   ar
    52    51    33   ar
    53    27     9   ar
    54    32    28   ar
    55    43    38   ar
    56    49    44   ar
    57    19    14   ar
    58    25    20   ar
    59     1    52    1
    60     2    53    1
    61     4    54    1
    62     5    55    1
    63     7    56    1
    64     8    57    1
    65    10    58    1
    66    11    59    1
    67    15    60    1
    68    16    61    1
    69    17    62    1
    70    18    63    1
    71    19    64    1
    72    21    65    1
    73    22    66    1
    74    23    67    1
    75    24    68    1
    76    25    69    1
    77    26    70    1
    78    27    71    1
    79    34    72    1
    80    35    73    1
    81    39    74    1
    82    40    75    1
    83    41    76    1
    84    42    77    1
    85    43    78    1
    86    45    79    1
    87    46    80    1
    88    47    81    1
    89    48    82    1
    90    49    83    1
    91    50    84    1
    92    51    85    1
