@<TRIPOS>MOLECULE
*****
 88 96 0 0 0
SMALL
GASTEIGER

@<TRIPOS>ATOM
      1 C          -4.4529    9.4270    1.9449 C.2     1  UNL1       -0.0470
      2 C          -4.6452    8.1023    1.8247 C.2     1  UNL1       -0.0469
      3 C          -3.8595    7.2020    1.0478 C.ar    1  UNL1        0.0128
      4 C          -3.3495    7.3258   -0.2308 C.ar    1  UNL1       -0.0469
      5 C          -2.6566    6.1592   -0.6681 C.ar    1  UNL1       -0.0464
      6 C          -2.6666    5.1468    0.2720 C.ar    1  UNL1        0.0199
      7 C          -2.0835    3.8000    0.1695 C.ar    1  UNL1       -0.0112
      8 C          -2.7491    2.6709    0.6627 C.ar    1  UNL1       -0.0518
      9 C          -2.2072    1.3898    0.5033 C.ar    1  UNL1       -0.0394
     10 C          -0.9831    1.1934   -0.1561 C.ar    1  UNL1        0.0388
     11 N          -0.4496   -0.1321   -0.3558 N.pl3   1  UNL1       -0.2692
     12 C          -1.3380   -1.2296   -0.6527 C.ar    1  UNL1        0.0388
     13 C          -2.3984   -1.0805   -1.5604 C.ar    1  UNL1       -0.0394
     14 C          -3.2623   -2.1460   -1.8414 C.ar    1  UNL1       -0.0518
     15 C          -3.0961   -3.3897   -1.2177 C.ar    1  UNL1       -0.0112
     16 C          -3.9919   -4.5217   -1.4922 C.ar    1  UNL1        0.0199
     17 C          -3.6706   -5.8554   -1.6518 C.ar    1  UNL1       -0.0464
     18 C          -4.8156   -6.6744   -1.8692 C.ar    1  UNL1       -0.0469
     19 C          -5.9986   -5.9595   -1.8574 C.ar    1  UNL1        0.0128
     20 C          -7.3382   -6.3985   -2.0479 C.2     1  UNL1       -0.0469
     21 C          -7.9210   -7.4414   -1.4350 C.2     1  UNL1       -0.0470
     22 C          -7.3513   -8.2365   -0.3987 C.ar    1  UNL1        0.0122
     23 C          -6.5987   -7.8772    0.7075 C.ar    1  UNL1       -0.0475
     24 C          -6.2357   -8.9874    1.5241 C.ar    1  UNL1       -0.0542
     25 C          -6.7362  -10.1694    1.0325 C.ar    1  UNL1       -0.0238
     26 S          -7.6405   -9.9366   -0.3985 S.2     1  UNL1       -0.0973
     27 S          -5.6860   -4.2858   -1.6241 S.2     1  UNL1       -0.0888
     28 C          -2.0329   -3.5429   -0.3174 C.ar    1  UNL1       -0.0518
     29 C          -1.1662   -2.4802   -0.0395 C.ar    1  UNL1       -0.0394
     30 C           0.9687   -0.3750   -0.2643 C.ar    1  UNL1        0.0388
     31 C           1.7452    0.2129    0.7450 C.ar    1  UNL1       -0.0394
     32 C           3.1169   -0.0547    0.8462 C.ar    1  UNL1       -0.0518
     33 C           3.7553   -0.9087   -0.0638 C.ar    1  UNL1       -0.0112
     34 C           5.1885   -1.2292    0.0395 C.ar    1  UNL1        0.0199
     35 C           5.8141   -2.4415   -0.1796 C.ar    1  UNL1       -0.0464
     36 C           7.2273   -2.3756    0.0004 C.ar    1  UNL1       -0.0469
     37 C           7.6747   -1.1123    0.3496 C.ar    1  UNL1        0.0128
     38 C           8.9869   -0.6143    0.6200 C.2     1  UNL1       -0.0469
     39 C          10.0928   -1.3462    0.4022 C.2     1  UNL1       -0.0470
     40 C          11.4266   -0.8932    0.6559 C.ar    1  UNL1        0.0122
     41 C          12.5979   -1.5612    0.3263 C.ar    1  UNL1       -0.0475
     42 C          13.7791   -0.8644    0.7133 C.ar    1  UNL1       -0.0542
     43 C          13.4887    0.3232    1.3402 C.ar    1  UNL1       -0.0238
     44 S          11.8074    0.5880    1.4537 S.2     1  UNL1       -0.0973
     45 S           6.3370   -0.0246    0.4517 S.2     1  UNL1       -0.0888
     46 C           2.9821   -1.4886   -1.0783 C.ar    1  UNL1       -0.0518
     47 C           1.6110   -1.2268   -1.1771 C.ar    1  UNL1       -0.0394
     48 C          -0.3103    2.3290   -0.6334 C.ar    1  UNL1       -0.0394
     49 C          -0.8534    3.6112   -0.4760 C.ar    1  UNL1       -0.0518
     50 S          -3.4873    5.6497    1.6919 S.2     1  UNL1       -0.0888
     51 C          -3.3557   10.1629    1.4153 C.ar    1  UNL1        0.0122
     52 C          -1.9966    9.9026    1.4693 C.ar    1  UNL1       -0.0475
     53 C          -1.2095   10.9091    0.8370 C.ar    1  UNL1       -0.0542
     54 C          -1.9868   11.9199    0.3225 C.ar    1  UNL1       -0.0238
     55 S          -3.6508   11.6613    0.6184 S.2     1  UNL1       -0.0973
     56 H          -5.1863    9.9912    2.5213 H       1  UNL1        0.0629
     57 H          -5.5006    7.6744    2.3464 H       1  UNL1        0.0629
     58 H          -3.4820    8.2122   -0.8405 H       1  UNL1        0.0629
     59 H          -2.2018    6.0616   -1.6454 H       1  UNL1        0.0629
     60 H          -3.7122    2.7639    1.1599 H       1  UNL1        0.0624
     61 H          -2.7547    0.5408    0.9071 H       1  UNL1        0.0636
     62 H          -2.5519   -0.1327   -2.0721 H       1  UNL1        0.0636
     63 H          -4.0598   -1.9881   -2.5642 H       1  UNL1        0.0624
     64 H          -2.6563   -6.2324   -1.6217 H       1  UNL1        0.0629
     65 H          -4.7721   -7.7452   -2.0268 H       1  UNL1        0.0629
     66 H          -7.9302   -5.8461   -2.7751 H       1  UNL1        0.0629
     67 H          -8.9334   -7.6965   -1.7417 H       1  UNL1        0.0629
     68 H          -6.3217   -6.8535    0.9282 H       1  UNL1        0.0629
     69 H          -5.6455   -8.9157    2.4294 H       1  UNL1        0.0623
     70 H          -6.6216  -11.1610    1.4487 H       1  UNL1        0.0693
     71 H          -1.8761   -4.4883    0.1956 H       1  UNL1        0.0624
     72 H          -0.3675   -2.6298    0.6836 H       1  UNL1        0.0636
     73 H           1.2818    0.8632    1.4837 H       1  UNL1        0.0636
     74 H           3.6722    0.4011    1.6630 H       1  UNL1        0.0624
     75 H           5.2835   -3.3463   -0.4481 H       1  UNL1        0.0629
     76 H           7.8762   -3.2343   -0.1178 H       1  UNL1        0.0629
     77 H           9.0582    0.3994    1.0062 H       1  UNL1        0.0629
     78 H          10.0090   -2.3495   -0.0063 H       1  UNL1        0.0629
     79 H          12.6087   -2.5189   -0.1801 H       1  UNL1        0.0629
     80 H          14.7873   -1.2200    0.5436 H       1  UNL1        0.0623
     81 H          14.1832    1.0492    1.7409 H       1  UNL1        0.0693
     82 H           3.4379   -2.1465   -1.8145 H       1  UNL1        0.0624
     83 H           1.0472   -1.6853   -1.9864 H       1  UNL1        0.0636
     84 H           0.6321    2.2245   -1.1654 H       1  UNL1        0.0636
     85 H          -0.3001    4.4616   -0.8688 H       1  UNL1        0.0624
     86 H          -1.5838    9.0241    1.9517 H       1  UNL1        0.0629
     87 H          -0.1290   10.8922    0.7708 H       1  UNL1        0.0623
     88 H          -1.6596   12.8051   -0.2055 H       1  UNL1        0.0693
@<TRIPOS>BOND
     1     1     2    2
     2     2     3    1
     3     3     4   ar
     4     4     5   ar
     5     5     6   ar
     6     6     7    1
     7     7     8   ar
     8     8     9   ar
     9     9    10   ar
    10    10    11    1
    11    11    12    1
    12    12    13   ar
    13    13    14   ar
    14    14    15   ar
    15    15    16    1
    16    16    17   ar
    17    17    18   ar
    18    18    19   ar
    19    19    20    1
    20    20    21    2
    21    21    22    1
    22    22    23   ar
    23    23    24   ar
    24    24    25   ar
    25    25    26   ar
    26    19    27   ar
    27    15    28   ar
    28    28    29   ar
    29    11    30    1
    30    30    31   ar
    31    31    32   ar
    32    32    33   ar
    33    33    34    1
    34    34    35   ar
    35    35    36   ar
    36    36    37   ar
    37    37    38    1
    38    38    39    2
    39    39    40    1
    40    40    41   ar
    41    41    42   ar
    42    42    43   ar
    43    43    44   ar
    44    37    45   ar
    45    33    46   ar
    46    46    47   ar
    47    10    48   ar
    48    48    49   ar
    49     6    50   ar
    50     1    51    1
    51    51    52   ar
    52    52    53   ar
    53    53    54   ar
    54    54    55   ar
    55    50     3   ar
    56    55    51   ar
    57    49     7   ar
    58    29    12   ar
    59    47    30   ar
    60    27    16   ar
    61    45    34   ar
    62    26    22   ar
    63    44    40   ar
    64     1    56    1
    65     2    57    1
    66     4    58    1
    67     5    59    1
    68     8    60    1
    69     9    61    1
    70    13    62    1
    71    14    63    1
    72    17    64    1
    73    18    65    1
    74    20    66    1
    75    21    67    1
    76    23    68    1
    77    24    69    1
    78    25    70    1
    79    28    71    1
    80    29    72    1
    81    31    73    1
    82    32    74    1
    83    35    75    1
    84    36    76    1
    85    38    77    1
    86    39    78    1
    87    41    79    1
    88    42    80    1
    89    43    81    1
    90    46    82    1
    91    47    83    1
    92    48    84    1
    93    49    85    1
    94    52    86    1
    95    53    87    1
    96    54    88    1
