@<TRIPOS>MOLECULE
*****
 38 41 0 0 0
SMALL
GASTEIGER

@<TRIPOS>ATOM
      1 C           1.5997   -1.7118    1.5412 C.2     1  UNL1        0.0451
      2 N           1.0772   -0.6350    2.0521 N.2     1  UNL1       -0.2194
      3 C           1.0335    0.4768    1.2831 C.ar    1  UNL1        0.2319
      4 N           2.0253    1.0901    0.6693 N.ar    1  UNL1       -0.2106
      5 C           1.4753    2.1858    0.0585 C.ar    1  UNL1        0.0912
      6 C           2.0927    3.1628   -0.7368 C.ar    1  UNL1       -0.0342
      7 C           1.3149    4.2082   -1.2477 C.ar    1  UNL1       -0.0596
      8 C          -0.0509    4.2809   -0.9702 C.ar    1  UNL1       -0.0597
      9 C          -0.6840    3.3157   -0.1782 C.ar    1  UNL1       -0.0360
     10 C           0.1121    2.2756    0.3192 C.ar    1  UNL1        0.0706
     11 N          -0.1445    1.1749    1.1051 N.ar    1  UNL1       -0.3039
     12 C          -1.4215    0.8211    1.7001 C.3     1  UNL1        0.0517
     13 C          -2.1083   -0.2993    0.9569 C.ar    1  UNL1       -0.0276
     14 C          -2.6286   -0.1001   -0.3307 C.ar    1  UNL1       -0.0569
     15 C          -3.2547   -1.1451   -1.0122 C.ar    1  UNL1       -0.0614
     16 C          -3.3704   -2.3986   -0.4152 C.ar    1  UNL1       -0.0617
     17 C          -2.8597   -2.6096    0.8635 C.ar    1  UNL1       -0.0614
     18 C          -2.2328   -1.5664    1.5465 C.ar    1  UNL1       -0.0569
     19 C           2.0363   -2.0068    0.1931 C.ar    1  UNL1        0.0303
     20 C           3.2102   -2.6333   -0.1789 C.ar    1  UNL1       -0.0461
     21 C           3.3011   -2.8228   -1.5889 C.ar    1  UNL1       -0.0541
     22 C           2.1786   -2.3658   -2.2417 C.ar    1  UNL1       -0.0237
     23 S           1.0215   -1.7282   -1.1567 S.2     1  UNL1       -0.0957
     24 H           1.7371   -2.5470    2.2507 H       1  UNL1        0.0842
     25 H           3.1549    3.0991   -0.9441 H       1  UNL1        0.0639
     26 H           1.7834    4.9705   -1.8653 H       1  UNL1        0.0618
     27 H          -0.6351    5.1039   -1.3770 H       1  UNL1        0.0618
     28 H          -1.7460    3.3809    0.0311 H       1  UNL1        0.0639
     29 H          -2.0651    1.7075    1.7143 H       1  UNL1        0.0542
     30 H          -1.2378    0.5574    2.7485 H       1  UNL1        0.0542
     31 H          -2.5398    0.8671   -0.8201 H       1  UNL1        0.0621
     32 H          -3.6463   -0.9821   -2.0129 H       1  UNL1        0.0618
     33 H          -3.8541   -3.2122   -0.9491 H       1  UNL1        0.0618
     34 H          -2.9457   -3.5886    1.3275 H       1  UNL1        0.0618
     35 H          -1.8311   -1.7520    2.5407 H       1  UNL1        0.0621
     36 H           3.9813   -2.9221    0.5252 H       1  UNL1        0.0629
     37 H           4.1457   -3.2710   -2.0975 H       1  UNL1        0.0623
     38 H           1.9755   -2.3807   -3.3035 H       1  UNL1        0.0693
@<TRIPOS>BOND
     1     1     2    2
     2     2     3    1
     3     3     4   ar
     4     4     5   ar
     5     5     6   ar
     6     6     7   ar
     7     7     8   ar
     8     8     9   ar
     9     9    10   ar
    10    10    11   ar
    11    11    12    1
    12    12    13    1
    13    13    14   ar
    14    14    15   ar
    15    15    16   ar
    16    16    17   ar
    17    17    18   ar
    18     1    19    1
    19    19    20   ar
    20    20    21   ar
    21    21    22   ar
    22    22    23   ar
    23    11     3   ar
    24    18    13   ar
    25    23    19   ar
    26    10     5   ar
    27     1    24    1
    28     6    25    1
    29     7    26    1
    30     8    27    1
    31     9    28    1
    32    12    29    1
    33    12    30    1
    34    14    31    1
    35    15    32    1
    36    16    33    1
    37    17    34    1
    38    18    35    1
    39    20    36    1
    40    21    37    1
    41    22    38    1
