@<TRIPOS>MOLECULE
*****
 69 79 0 0 0
SMALL
GASTEIGER

@<TRIPOS>ATOM
      1 C           0.0653   -1.9349    4.1263 C.3     1  UNL1        0.0000
      2 SI          0.0725   -0.2305    3.4242 Si      1  UNL1        0.0000
      3 C           0.1416    1.1107    4.6893 C.3     1  UNL1        0.0000
      4 C          -1.3015    0.0493    2.1177 C.ar    1  UNL1        0.0000
      5 C          -2.6991    0.0379    2.1112 C.ar    1  UNL1        0.0000
      6 C          -3.1746    0.2701    0.8232 C.ar    1  UNL1        0.0000
      7 C          -4.5539    0.3023    0.3410 C.ar    1  UNL1        0.0000
      8 C          -4.9821   -0.2289   -0.8802 C.ar    1  UNL1        0.0000
      9 N          -6.2596   -0.2703   -1.3762 N.ar    1  UNL1        0.0000
     10 C          -7.3135    0.2471   -0.6716 C.ar    1  UNL1        0.0000
     11 C          -8.6545    0.1272   -1.2384 C.ar    1  UNL1        0.0000
     12 C          -9.8814    0.0333   -0.6072 C.ar    1  UNL1        0.0000
     13 C         -10.9893   -0.1143   -1.5084 C.ar    1  UNL1        0.0000
     14 C         -12.3736   -0.2595   -1.2507 C.ar    1  UNL1        0.0000
     15 C         -13.2788   -0.4010   -2.3071 C.ar    1  UNL1        0.0000
     16 C         -12.8286   -0.3948   -3.6201 C.ar    1  UNL1        0.0000
     17 C         -11.4693   -0.2486   -3.9036 C.ar    1  UNL1        0.0000
     18 C         -10.5614   -0.1134   -2.8353 C.ar    1  UNL1        0.0000
     19 S          -8.8562    0.0656   -2.9406 S.2     1  UNL1        0.0000
     20 C          -7.0413    0.8297    0.5945 C.ar    1  UNL1        0.0000
     21 N          -7.9093    1.3983    1.4533 N.ar    1  UNL1        0.0000
     22 S          -7.0358    1.9233    2.7550 S.2     1  UNL1        0.0000
     23 N          -5.5179    1.4341    2.3222 N.ar    1  UNL1        0.0000
     24 C          -5.6127    0.8528    1.1101 C.ar    1  UNL1        0.0000
     25 S          -1.8688    0.5347   -0.2988 S.2     1  UNL1        0.0000
     26 C          -0.7139    0.2901    0.8958 C.ar    1  UNL1        0.0000
     27 C           0.7171    0.2600    0.8487 C.ar    1  UNL1        0.0000
     28 S           1.8017    0.4664   -0.4188 S.2     1  UNL1        0.0000
     29 C           3.1561    0.1064    0.6094 C.ar    1  UNL1        0.0000
     30 C           4.5063    0.0853    0.0610 C.ar    1  UNL1        0.0000
     31 C           5.5776    0.7707    0.6381 C.ar    1  UNL1        0.0000
     32 N           6.8871    0.7731    0.2324 N.ar    1  UNL1        0.0000
     33 C           7.2852    0.0660   -0.8735 C.ar    1  UNL1        0.0000
     34 C           8.7052    0.1075   -1.1995 C.ar    1  UNL1        0.0000
     35 C           9.7685    0.1847   -0.3186 C.ar    1  UNL1        0.0000
     36 C          11.0506    0.2033   -0.9602 C.ar    1  UNL1        0.0000
     37 C          12.3558    0.2438   -0.4132 C.ar    1  UNL1        0.0000
     38 C          13.4741    0.2505   -1.2524 C.ar    1  UNL1        0.0000
     39 C          13.3150    0.2196   -2.6309 C.ar    1  UNL1        0.0000
     40 C          12.0388    0.1821   -3.1982 C.ar    1  UNL1        0.0000
     41 C          10.9160    0.1748   -2.3483 C.ar    1  UNL1        0.0000
     42 S           9.2609    0.1376   -2.8158 S.2     1  UNL1        0.0000
     43 C           6.3115   -0.7093   -1.5584 C.ar    1  UNL1        0.0000
     44 N           6.4824   -1.5189   -2.6208 N.ar    1  UNL1        0.0000
     45 S           5.0100   -2.1788   -2.9768 S.2     1  UNL1        0.0000
     46 N           4.0797   -1.5038   -1.7903 N.ar    1  UNL1        0.0000
     47 C           4.8761   -0.6961   -1.0647 C.ar    1  UNL1        0.0000
     48 C           2.7643   -0.0958    1.9305 C.ar    1  UNL1        0.0000
     49 C           1.3727   -0.0081    2.0309 C.ar    1  UNL1        0.0000
     50 H          -0.0487   -2.6913    3.3426 H       1  UNL1        0.0000
     51 H          -0.7593   -2.0683    4.8349 H       1  UNL1        0.0000
     52 H           0.9971   -2.1449    4.6607 H       1  UNL1        0.0000
     53 H           0.0958    2.1004    4.2253 H       1  UNL1        0.0000
     54 H           1.0649    1.0585    5.2744 H       1  UNL1        0.0000
     55 H          -0.6962    1.0380    5.3894 H       1  UNL1        0.0000
     56 H          -3.3391   -0.1488    2.9651 H       1  UNL1        0.0000
     57 H          -4.2612   -0.6961   -1.5513 H       1  UNL1        0.0000
     58 H          -9.9983    0.0440    0.4699 H       1  UNL1        0.0000
     59 H         -12.7354   -0.2649   -0.2259 H       1  UNL1        0.0000
     60 H         -14.3384   -0.5183   -2.0960 H       1  UNL1        0.0000
     61 H         -13.5366   -0.5050   -4.4381 H       1  UNL1        0.0000
     62 H         -11.1182   -0.2431   -4.9318 H       1  UNL1        0.0000
     63 H           5.4059    1.3902    1.5195 H       1  UNL1        0.0000
     64 H           9.6337    0.2103    0.7568 H       1  UNL1        0.0000
     65 H          12.4910    0.2672    0.6650 H       1  UNL1        0.0000
     66 H          14.4722    0.2777   -0.8211 H       1  UNL1        0.0000
     67 H          14.1907    0.2274   -3.2756 H       1  UNL1        0.0000
     68 H          11.9149    0.1608   -4.2773 H       1  UNL1        0.0000
     69 H           3.4502   -0.3253    2.7373 H       1  UNL1        0.0000
@<TRIPOS>BOND
     1     1     2    1
     2     2     3    1
     3     2     4    1
     4     4     5   ar
     5     5     6   ar
     6     6     7    1
     7     7     8   ar
     8     8     9   ar
     9     9    10   ar
    10    10    11    1
    11    11    12   ar
    12    12    13   ar
    13    13    14   ar
    14    14    15   ar
    15    15    16   ar
    16    16    17   ar
    17    17    18   ar
    18    18    19   ar
    19    10    20   ar
    20    20    21   ar
    21    21    22   ar
    22    22    23   ar
    23    23    24   ar
    24     6    25   ar
    25    25    26   ar
    26    26    27    1
    27    27    28   ar
    28    28    29   ar
    29    29    30    1
    30    30    31   ar
    31    31    32   ar
    32    32    33   ar
    33    33    34    1
    34    34    35   ar
    35    35    36   ar
    36    36    37   ar
    37    37    38   ar
    38    38    39   ar
    39    39    40   ar
    40    40    41   ar
    41    41    42   ar
    42    33    43   ar
    43    43    44   ar
    44    44    45   ar
    45    45    46   ar
    46    46    47   ar
    47    29    48   ar
    48    48    49   ar
    49    49     2    1
    50    26     4   ar
    51    49    27   ar
    52    24     7   ar
    53    47    30   ar
    54    19    11   ar
    55    24    20   ar
    56    42    34   ar
    57    47    43   ar
    58    18    13   ar
    59    41    36   ar
    60     1    50    1
    61     1    51    1
    62     1    52    1
    63     3    53    1
    64     3    54    1
    65     3    55    1
    66     5    56    1
    67     8    57    1
    68    12    58    1
    69    14    59    1
    70    15    60    1
    71    16    61    1
    72    17    62    1
    73    31    63    1
    74    35    64    1
    75    37    65    1
    76    38    66    1
    77    39    67    1
    78    40    68    1
    79    48    69    1
