@<TRIPOS>MOLECULE
*****
 57 65 0 0 0
SMALL
GASTEIGER

@<TRIPOS>ATOM
      1 C          -0.0342   -0.1990    4.2390 C.3     1  UNL1        0.0000
      2 SI          0.0034    0.9464    2.7934 Si      1  UNL1        0.0000
      3 C           0.0484    2.7343    3.2424 C.3     1  UNL1        0.0000
      4 C          -1.3392    0.5425    1.4836 C.ar    1  UNL1        0.0000
      5 C          -2.7362    0.5722    1.4295 C.ar    1  UNL1        0.0000
      6 C          -3.1638    0.1348    0.1802 C.ar    1  UNL1        0.0000
      7 C          -4.5221    0.0254   -0.3233 C.ar    1  UNL1        0.0000
      8 C          -5.3848    1.1133   -0.4516 C.ar    1  UNL1        0.0000
      9 N          -6.6773    1.1004   -0.9060 N.ar    1  UNL1        0.0000
     10 C          -7.2737   -0.0656   -1.3211 C.ar    1  UNL1        0.0000
     11 C          -8.6490    0.0463   -1.7980 C.ar    1  UNL1        0.0000
     12 C          -9.5984    0.9817   -1.4184 C.ar    1  UNL1        0.0000
     13 C         -10.8380    0.8326   -2.1052 C.ar    1  UNL1        0.0000
     14 C         -10.7990   -0.2058   -3.0058 C.ar    1  UNL1        0.0000
     15 S          -9.2781   -0.9798   -3.0227 S.2     1  UNL1        0.0000
     16 C          -6.5264   -1.2712   -1.2164 C.ar    1  UNL1        0.0000
     17 N          -6.9129   -2.5292   -1.5011 N.ar    1  UNL1        0.0000
     18 S          -5.6303   -3.5230   -1.1847 S.2     1  UNL1        0.0000
     19 N          -4.5235   -2.4262   -0.6332 N.ar    1  UNL1        0.0000
     20 C          -5.1011   -1.2123   -0.6971 C.ar    1  UNL1        0.0000
     21 S          -1.8375   -0.2529   -0.8704 S.2     1  UNL1        0.0000
     22 C          -0.7179    0.1210    0.3267 C.ar    1  UNL1        0.0000
     23 C           0.7133    0.0808    0.3372 C.ar    1  UNL1        0.0000
     24 S           1.8281   -0.3565   -0.8433 S.2     1  UNL1        0.0000
     25 C           3.1583   -0.0478    0.2291 C.ar    1  UNL1        0.0000
     26 C           4.5167   -0.2368   -0.2502 C.ar    1  UNL1        0.0000
     27 C           5.4499    0.7957   -0.3407 C.ar    1  UNL1        0.0000
     28 N           6.7483    0.7078   -0.7681 N.ar    1  UNL1        0.0000
     29 C           7.2777   -0.4875   -1.1918 C.ar    1  UNL1        0.0000
     30 C           8.6656   -0.4542   -1.6430 C.ar    1  UNL1        0.0000
     31 C           9.6679    0.4076   -1.2239 C.ar    1  UNL1        0.0000
     32 C          10.9052    0.1982   -1.8989 C.ar    1  UNL1        0.0000
     33 C          10.8127   -0.8100   -2.8296 C.ar    1  UNL1        0.0000
     34 S           9.2458   -1.4872   -2.8855 S.2     1  UNL1        0.0000
     35 C           6.4544   -1.6447   -1.1225 C.ar    1  UNL1        0.0000
     36 N           6.7678   -2.9201   -1.4200 N.ar    1  UNL1        0.0000
     37 S           5.4198   -3.8362   -1.1431 S.2     1  UNL1        0.0000
     38 N           4.3710   -2.6800   -0.6000 N.ar    1  UNL1        0.0000
     39 C           5.0248   -1.5036   -0.6321 C.ar    1  UNL1        0.0000
     40 C           2.7367    0.4156    1.4709 C.ar    1  UNL1        0.0000
     41 C           1.3399    0.4678    1.5031 C.ar    1  UNL1        0.0000
     42 H          -0.8964    0.0032    4.8809 H       1  UNL1        0.0000
     43 H           0.8655   -0.0900    4.8518 H       1  UNL1        0.0000
     44 H          -0.0925   -1.2431    3.9195 H       1  UNL1        0.0000
     45 H           0.0416    3.3696    2.3506 H       1  UNL1        0.0000
     46 H           0.9487    2.9779    3.8155 H       1  UNL1        0.0000
     47 H          -0.8171    3.0098    3.8520 H       1  UNL1        0.0000
     48 H          -3.4050    0.8725    2.2284 H       1  UNL1        0.0000
     49 H          -5.0368    2.1106   -0.1812 H       1  UNL1        0.0000
     50 H          -9.4032    1.7458   -0.6747 H       1  UNL1        0.0000
     51 H         -11.7080    1.4597   -1.9518 H       1  UNL1        0.0000
     52 H         -11.5876   -0.5438   -3.6637 H       1  UNL1        0.0000
     53 H           5.1600    1.8085   -0.0596 H       1  UNL1        0.0000
     54 H           9.5109    1.1626   -0.4620 H       1  UNL1        0.0000
     55 H          11.8110    0.7644   -1.7169 H       1  UNL1        0.0000
     56 H          11.5877   -1.1788   -3.4871 H       1  UNL1        0.0000
     57 H           3.4089    0.6762    2.2800 H       1  UNL1        0.0000
@<TRIPOS>BOND
     1     1     2    1
     2     2     3    1
     3     2     4    1
     4     4     5   ar
     5     5     6   ar
     6     6     7    1
     7     7     8   ar
     8     8     9   ar
     9     9    10   ar
    10    10    11    1
    11    11    12   ar
    12    12    13   ar
    13    13    14   ar
    14    14    15   ar
    15    10    16   ar
    16    16    17   ar
    17    17    18   ar
    18    18    19   ar
    19    19    20   ar
    20     6    21   ar
    21    21    22   ar
    22    22    23    1
    23    23    24   ar
    24    24    25   ar
    25    25    26    1
    26    26    27   ar
    27    27    28   ar
    28    28    29   ar
    29    29    30    1
    30    30    31   ar
    31    31    32   ar
    32    32    33   ar
    33    33    34   ar
    34    29    35   ar
    35    35    36   ar
    36    36    37   ar
    37    37    38   ar
    38    38    39   ar
    39    25    40   ar
    40    40    41   ar
    41    41     2    1
    42    22     4   ar
    43    41    23   ar
    44    20     7   ar
    45    39    26   ar
    46    15    11   ar
    47    20    16   ar
    48    34    30   ar
    49    39    35   ar
    50     1    42    1
    51     1    43    1
    52     1    44    1
    53     3    45    1
    54     3    46    1
    55     3    47    1
    56     5    48    1
    57     8    49    1
    58    12    50    1
    59    13    51    1
    60    14    52    1
    61    27    53    1
    62    31    54    1
    63    32    55    1
    64    33    56    1
    65    40    57    1
