@<TRIPOS>MOLECULE
*****
 34 38 0 0 0
SMALL
GASTEIGER

@<TRIPOS>ATOM
      1 C          -3.2007   -2.0434    0.1291 C.3     1  UNL1        0.0000
      2 SI         -2.6428   -0.3966   -0.4856 Si      1  UNL1        0.0000
      3 C          -2.9438   -0.1179   -2.2840 C.3     1  UNL1        0.0000
      4 C          -3.2626    1.0555    0.6066 C.ar    1  UNL1        0.0000
      5 C          -4.5025    1.6182    0.9224 C.ar    1  UNL1        0.0000
      6 C          -4.3116    2.6803    1.7918 C.ar    1  UNL1        0.0000
      7 S          -2.6438    2.9446    2.1828 S.2     1  UNL1        0.0000
      8 C          -2.1738    1.6569    1.2051 C.ar    1  UNL1        0.0000
      9 C          -0.8854    1.1079    0.9055 C.ar    1  UNL1        0.0000
     10 S           0.6580    1.5289    1.4184 S.2     1  UNL1        0.0000
     11 C           1.3851    0.2576    0.4729 C.ar    1  UNL1        0.0000
     12 C           2.8368    0.0777    0.5028 C.ar    1  UNL1        0.0000
     13 C           3.7766    1.1367    0.5557 C.ar    1  UNL1        0.0000
     14 C           5.1827    0.9391    0.5793 C.ar    1  UNL1        0.0000
     15 C           5.7770   -0.3335    0.5499 C.ar    1  UNL1        0.0000
     16 C           4.8677   -1.4056    0.4930 C.ar    1  UNL1        0.0000
     17 N           5.1254   -2.7179    0.4520 N.ar    1  UNL1        0.0000
     18 O           3.8931   -3.3422    0.4094 O.2     1  UNL1        0.0000
     19 N           2.8539   -2.4321    0.4167 N.ar    1  UNL1        0.0000
     20 C           3.4184   -1.2148    0.4682 C.ar    1  UNL1        0.0000
     21 C           0.4234   -0.4740   -0.2202 C.ar    1  UNL1        0.0000
     22 C          -0.8519    0.0325    0.0458 C.ar    1  UNL1        0.0000
     23 H          -3.0021   -2.1597    1.1992 H       1  UNL1        0.0000
     24 H          -4.2756   -2.1798   -0.0248 H       1  UNL1        0.0000
     25 H          -2.6857   -2.8557   -0.3932 H       1  UNL1        0.0000
     26 H          -2.4196   -0.8614   -2.8925 H       1  UNL1        0.0000
     27 H          -2.5977    0.8715   -2.5992 H       1  UNL1        0.0000
     28 H          -4.0098   -0.1870   -2.5219 H       1  UNL1        0.0000
     29 H          -5.4738    1.3005    0.5644 H       1  UNL1        0.0000
     30 H          -5.0631    3.3249    2.2263 H       1  UNL1        0.0000
     31 H           3.4167    2.1667    0.5701 H       1  UNL1        0.0000
     32 H           5.8289    1.8169    0.6206 H       1  UNL1        0.0000
     33 H           6.8490   -0.4818    0.5682 H       1  UNL1        0.0000
     34 H           0.6535   -1.3129   -0.8666 H       1  UNL1        0.0000
@<TRIPOS>BOND
     1     1     2    1
     2     2     3    1
     3     2     4    1
     4     4     5   ar
     5     5     6   ar
     6     6     7   ar
     7     7     8   ar
     8     8     9    1
     9     9    10   ar
    10    10    11   ar
    11    11    12    1
    12    12    13   ar
    13    13    14   ar
    14    14    15   ar
    15    15    16   ar
    16    16    17   ar
    17    17    18   ar
    18    18    19   ar
    19    19    20   ar
    20    11    21   ar
    21    21    22   ar
    22    22     2    1
    23     8     4   ar
    24    22     9   ar
    25    20    12   ar
    26    20    16   ar
    27     1    23    1
    28     1    24    1
    29     1    25    1
    30     3    26    1
    31     3    27    1
    32     3    28    1
    33     5    29    1
    34     6    30    1
    35    13    31    1
    36    14    32    1
    37    15    33    1
    38    21    34    1
