@<TRIPOS>MOLECULE
*****
 34 38 0 0 0
SMALL
GASTEIGER

@<TRIPOS>ATOM
      1 C           3.2520   -1.5401   -1.5021 C.3     1  UNL1        0.0000
      2 SI          2.5857   -0.9755    0.1227 Si      1  UNL1        0.0000
      3 C           2.6670   -2.2466    1.4565 C.3     1  UNL1        0.0000
      4 C           3.2955    0.7229    0.6681 C.ar    1  UNL1        0.0000
      5 C           4.5506    1.2182    1.0331 C.ar    1  UNL1        0.0000
      6 C           4.4375    2.5661    1.3341 C.ar    1  UNL1        0.0000
      7 S           2.8205    3.1659    1.1605 S.2     1  UNL1        0.0000
      8 C           2.2696    1.6463    0.6885 C.ar    1  UNL1        0.0000
      9 C           0.9680    1.1759    0.3203 C.ar    1  UNL1        0.0000
     10 S          -0.5184    1.9539    0.2250 S.2     1  UNL1        0.0000
     11 C          -1.3167    0.4926   -0.2890 C.ar    1  UNL1        0.0000
     12 C          -2.7571    0.5143   -0.5532 C.ar    1  UNL1        0.0000
     13 C          -3.4089    1.5612   -1.2488 C.ar    1  UNL1        0.0000
     14 C          -4.7994    1.5843   -1.5109 C.ar    1  UNL1        0.0000
     15 C          -5.6706    0.5622   -1.1048 C.ar    1  UNL1        0.0000
     16 C          -5.0834   -0.5196   -0.4069 C.ar    1  UNL1        0.0000
     17 N          -5.7448   -1.5895    0.0605 N.ar    1  UNL1        0.0000
     18 S          -4.6166   -2.5517    0.8024 S.2     1  UNL1        0.0000
     19 N          -3.2383   -1.6665    0.5532 N.ar    1  UNL1        0.0000
     20 C          -3.5959   -0.5566   -0.1207 C.ar    1  UNL1        0.0000
     21 C          -0.4247   -0.5733   -0.3743 C.ar    1  UNL1        0.0000
     22 C           0.8613   -0.1538   -0.0233 C.ar    1  UNL1        0.0000
     23 H           2.6990   -2.4072   -1.8764 H       1  UNL1        0.0000
     24 H           3.1836   -0.7520   -2.2585 H       1  UNL1        0.0000
     25 H           4.3044   -1.8290   -1.4191 H       1  UNL1        0.0000
     26 H           2.2626   -1.8644    2.3990 H       1  UNL1        0.0000
     27 H           2.0930   -3.1389    1.1878 H       1  UNL1        0.0000
     28 H           3.6990   -2.5601    1.6419 H       1  UNL1        0.0000
     29 H           5.4806    0.6660    1.0838 H       1  UNL1        0.0000
     30 H           5.2192    3.2428    1.6502 H       1  UNL1        0.0000
     31 H          -2.8166    2.4003   -1.6177 H       1  UNL1        0.0000
     32 H          -5.2111    2.4354   -2.0546 H       1  UNL1        0.0000
     33 H          -6.7337    0.5924   -1.3113 H       1  UNL1        0.0000
     34 H          -0.7128   -1.5756   -0.6690 H       1  UNL1        0.0000
@<TRIPOS>BOND
     1     1     2    1
     2     2     3    1
     3     2     4    1
     4     4     5   ar
     5     5     6   ar
     6     6     7   ar
     7     7     8   ar
     8     8     9    1
     9     9    10   ar
    10    10    11   ar
    11    11    12    1
    12    12    13   ar
    13    13    14   ar
    14    14    15   ar
    15    15    16   ar
    16    16    17   ar
    17    17    18   ar
    18    18    19   ar
    19    19    20   ar
    20    11    21   ar
    21    21    22   ar
    22    22     2    1
    23     8     4   ar
    24    22     9   ar
    25    20    12   ar
    26    20    16   ar
    27     1    23    1
    28     1    24    1
    29     1    25    1
    30     3    26    1
    31     3    27    1
    32     3    28    1
    33     5    29    1
    34     6    30    1
    35    13    31    1
    36    14    32    1
    37    15    33    1
    38    21    34    1
