@<TRIPOS>MOLECULE
*****
 45 51 0 0 0
SMALL
GASTEIGER

@<TRIPOS>ATOM
      1 SI          1.9160    0.9374   -0.0006 Si      1  UNL1        0.0000
      2 C           0.6240   -0.3730   -0.4494 C.2     1  UNL1        0.0000
      3 C           1.2279   -1.5324   -0.7889 C.2     1  UNL1        0.0000
      4 C           2.6840   -1.5271   -0.7387 C.2     1  UNL1        0.0000
      5 C           3.2398   -0.3651   -0.3432 C.2     1  UNL1        0.0000
      6 C           4.6532   -0.0727   -0.2495 C.ar    1  UNL1        0.0000
      7 C           5.4754    0.1880   -1.3716 C.ar    1  UNL1        0.0000
      8 C           6.8747    0.4813   -1.2852 C.ar    1  UNL1        0.0000
      9 C           7.5960    0.5357   -0.0730 C.ar    1  UNL1        0.0000
     10 C           6.7852    0.2611    1.0287 C.ar    1  UNL1        0.0000
     11 C           7.2712    0.2422    2.3125 C.ar    1  UNL1        0.0000
     12 S           6.0343   -0.1464    3.4402 S.2     1  UNL1        0.0000
     13 C           4.8472   -0.2916    2.2035 C.ar    1  UNL1        0.0000
     14 C           5.3728   -0.0346    0.9579 C.ar    1  UNL1        0.0000
     15 C          -0.7699   -0.1491   -0.4438 C.ar    1  UNL1        0.0000
     16 S          -1.6151    0.9060    0.6495 S.2     1  UNL1        0.0000
     17 C          -3.1882    0.5686   -0.0231 C.ar    1  UNL1        0.0000
     18 C          -4.3980    1.1674    0.4780 C.ar    1  UNL1        0.0000
     19 S          -4.4605    2.8431    0.9035 S.2     1  UNL1        0.0000
     20 C          -6.1126    2.7691    1.3480 C.ar    1  UNL1        0.0000
     21 C          -6.6156    1.5065    1.1800 C.ar    1  UNL1        0.0000
     22 N          -7.9071    1.1849    1.4684 N.ar    1  UNL1        0.0000
     23 C          -8.1416   -0.1325    1.2224 C.ar    1  UNL1        0.0000
     24 C          -7.1953   -1.0412    0.7353 C.ar    1  UNL1        0.0000
     25 N          -5.9022   -0.7421    0.4340 N.ar    1  UNL1        0.0000
     26 C          -5.6318    0.5764    0.6737 C.ar    1  UNL1        0.0000
     27 C          -3.0033   -0.3202   -1.0275 C.ar    1  UNL1        0.0000
     28 C          -3.7361   -1.0246   -2.0011 C.ar    1  UNL1        0.0000
     29 C          -2.7849   -1.7635   -2.7119 C.ar    1  UNL1        0.0000
     30 O          -1.4876   -1.5851   -2.2736 O.2     1  UNL1        0.0000
     31 C          -1.7015   -0.7030   -1.2538 C.ar    1  UNL1        0.0000
     32 H           1.8696    1.3193    1.4355 H       1  UNL1        0.0000
     33 H           1.9565    2.0585   -0.9759 H       1  UNL1        0.0000
     34 H           0.7050   -2.4336   -1.0886 H       1  UNL1        0.0000
     35 H           3.2485   -2.4106   -1.0126 H       1  UNL1        0.0000
     36 H           5.0239    0.1707   -2.3648 H       1  UNL1        0.0000
     37 H           7.4128    0.6720   -2.2146 H       1  UNL1        0.0000
     38 H           8.6542    0.7572   -0.0311 H       1  UNL1        0.0000
     39 H           8.2782    0.4272    2.6603 H       1  UNL1        0.0000
     40 H           3.8359   -0.5609    2.4745 H       1  UNL1        0.0000
     41 H          -6.6308    3.6454    1.7097 H       1  UNL1        0.0000
     42 H          -9.1546   -0.4626    1.4355 H       1  UNL1        0.0000
     43 H          -7.4724   -2.0790    0.5706 H       1  UNL1        0.0000
     44 H          -4.8017   -1.0177   -2.1796 H       1  UNL1        0.0000
     45 H          -2.8754   -2.4491   -3.5441 H       1  UNL1        0.0000
@<TRIPOS>BOND
     1     1     2    1
     2     2     3    2
     3     3     4    1
     4     4     5    2
     5     5     6    1
     6     6     7   ar
     7     7     8   ar
     8     8     9   ar
     9     9    10   ar
    10    10    11   ar
    11    11    12   ar
    12    12    13   ar
    13    13    14   ar
    14     2    15    1
    15    15    16   ar
    16    16    17   ar
    17    17    18    1
    18    18    19   ar
    19    19    20   ar
    20    20    21   ar
    21    21    22   ar
    22    22    23   ar
    23    23    24   ar
    24    24    25   ar
    25    25    26   ar
    26    17    27   ar
    27    27    28   ar
    28    28    29   ar
    29    29    30   ar
    30    30    31   ar
    31     5     1    1
    32    14     6   ar
    33    31    15   ar
    34    14    10   ar
    35    26    18   ar
    36    31    27   ar
    37    26    21   ar
    38     1    32    1
    39     1    33    1
    40     3    34    1
    41     4    35    1
    42     7    36    1
    43     8    37    1
    44     9    38    1
    45    11    39    1
    46    13    40    1
    47    20    41    1
    48    23    42    1
    49    24    43    1
    50    28    44    1
    51    29    45    1
