@<TRIPOS>MOLECULE
*****
 24 24 0 0 0
SMALL
GASTEIGER

@<TRIPOS>ATOM
      1 C          -2.6639   -2.2672   -0.1311 C.2     1  UNL1       -0.0980
      2 C          -1.6251   -1.8848   -0.8841 C.2     1  UNL1       -0.0581
      3 C          -0.6378   -0.8839   -0.4493 C.ar    1  UNL1        0.0196
      4 C           0.7092   -1.2812   -0.4362 C.ar    1  UNL1       -0.0093
      5 C           1.7213   -0.4009   -0.0484 C.ar    1  UNL1        0.1209
      6 O           2.9826   -0.9282   -0.0787 O.3     1  UNL1       -0.4951
      7 C           4.0481   -0.0733    0.3155 C.3     1  UNL1        0.0788
      8 C           1.3835    0.8968    0.3250 C.ar    1  UNL1       -0.0165
      9 C           0.0456    1.3123    0.3056 C.ar    1  UNL1       -0.0159
     10 C          -0.9730    0.4349   -0.0841 C.ar    1  UNL1        0.1274
     11 O          -2.2999    0.7762   -0.1522 O.3     1  UNL1       -0.4945
     12 C          -2.6617    2.1038    0.2002 C.3     1  UNL1        0.0788
     13 H          -2.8463   -1.8391    0.8497 H       1  UNL1        0.0535
     14 H          -3.3604   -3.0174   -0.4895 H       1  UNL1        0.0535
     15 H          -1.4558   -2.3368   -1.8574 H       1  UNL1        0.0619
     16 H           0.9788   -2.2958   -0.7229 H       1  UNL1        0.0661
     17 H           4.9794   -0.6427    0.2389 H       1  UNL1        0.0660
     18 H           4.1297    0.7898   -0.3534 H       1  UNL1        0.0660
     19 H           3.9359    0.2428    1.3579 H       1  UNL1        0.0660
     20 H           2.1346    1.6163    0.6337 H       1  UNL1        0.0655
     21 H          -0.1651    2.3356    0.5984 H       1  UNL1        0.0655
     22 H          -3.7463    2.1955    0.0876 H       1  UNL1        0.0660
     23 H          -2.1957    2.8321   -0.4716 H       1  UNL1        0.0660
     24 H          -2.4178    2.3153    1.2464 H       1  UNL1        0.0660
@<TRIPOS>BOND
     1     1     2    2
     2     2     3    1
     3     3     4   ar
     4     4     5   ar
     5     5     6    1
     6     6     7    1
     7     5     8   ar
     8     8     9   ar
     9     9    10   ar
    10    10    11    1
    11    11    12    1
    12    10     3   ar
    13     1    13    1
    14     1    14    1
    15     2    15    1
    16     4    16    1
    17     7    17    1
    18     7    18    1
    19     7    19    1
    20     8    20    1
    21     9    21    1
    22    12    22    1
    23    12    23    1
    24    12    24    1
