@<TRIPOS>MOLECULE
*****
 53 56 0 0 0
SMALL
GASTEIGER

@<TRIPOS>ATOM
      1 C          -7.0786    3.2945    0.9194 C.2     1  UNL1       -0.0981
      2 C          -6.8685    2.0114    0.5980 C.2     1  UNL1       -0.0617
      3 C          -5.5474    1.3732    0.5252 C.ar    1  UNL1       -0.0255
      4 C          -4.4953    1.7223    1.3787 C.ar    1  UNL1       -0.0528
      5 C          -3.2600    1.0685    1.2949 C.ar    1  UNL1       -0.0395
      6 C          -3.0460    0.0394    0.3635 C.ar    1  UNL1        0.0388
      7 N          -1.7718   -0.6323    0.2775 N.pl3   1  UNL1       -0.2692
      8 C          -1.7191   -2.0619    0.0771 C.ar    1  UNL1        0.0388
      9 C          -0.7662   -2.6390   -0.7814 C.ar    1  UNL1       -0.0400
     10 C          -0.7157   -4.0222   -0.9747 C.ar    1  UNL1       -0.0600
     11 C          -1.6166   -4.8525   -0.3126 C.ar    1  UNL1       -0.0616
     12 C          -2.5679   -4.3022    0.5428 C.ar    1  UNL1       -0.0600
     13 C          -2.6189   -2.9190    0.7359 C.ar    1  UNL1       -0.0400
     14 C          -0.5482    0.1275    0.3762 C.ar    1  UNL1        0.0388
     15 C          -0.4217    1.3805   -0.2481 C.ar    1  UNL1       -0.0395
     16 C           0.7680    2.1114   -0.1634 C.ar    1  UNL1       -0.0528
     17 C           1.8582    1.6019    0.5461 C.ar    1  UNL1       -0.0237
     18 C           3.0922    2.3834    0.6367 C.2     1  UNL1       -0.0357
     19 C           4.2472    2.1079    0.0147 C.2     1  UNL1        0.0772
     20 S           5.6492    3.1002    0.1956 S.3     1  UNL1       -0.0610
     21 C           6.6247    2.0910   -0.8619 C.2     1  UNL1        0.1210
     22 S           8.2321    2.4168   -1.1666 S.2     1  UNL1       -0.0272
     23 N           5.8577    1.0618   -1.3575 N.am    1  UNL1       -0.2445
     24 C           6.3552   -0.0009   -2.2310 C.3     1  UNL1        0.1180
     25 C           6.9044   -1.1838   -1.4498 C.2     1  UNL1        0.3227
     26 O           7.3637   -2.2016   -1.9461 O.2     1  UNL1       -0.2492
     27 O           6.8744   -1.0460   -0.1083 O.3     1  UNL1       -0.4795
     28 C           4.5506    0.9765   -0.9085 C.2     1  UNL1        0.2588
     29 O           3.7645    0.0947   -1.2222 O.2     1  UNL1       -0.2690
     30 C           1.7434    0.3638    1.1831 C.ar    1  UNL1       -0.0528
     31 C           0.5535   -0.3658    1.0959 C.ar    1  UNL1       -0.0395
     32 C          -4.1118   -0.3160   -0.4786 C.ar    1  UNL1       -0.0395
     33 C          -5.3466    0.3385   -0.3951 C.ar    1  UNL1       -0.0528
     34 H          -8.0874    3.6953    0.9422 H       1  UNL1        0.0535
     35 H          -6.2699    3.9803    1.1489 H       1  UNL1        0.0535
     36 H          -7.7201    1.3815    0.3500 H       1  UNL1        0.0618
     37 H          -4.6239    2.4966    2.1307 H       1  UNL1        0.0624
     38 H          -2.4686    1.3550    1.9836 H       1  UNL1        0.0636
     39 H          -0.0626   -2.0091   -1.3216 H       1  UNL1        0.0636
     40 H           0.0267   -4.4469   -1.6453 H       1  UNL1        0.0618
     41 H          -1.5766   -5.9282   -0.4629 H       1  UNL1        0.0618
     42 H          -3.2695   -4.9475    1.0648 H       1  UNL1        0.0618
     43 H          -3.3577   -2.5126    1.4226 H       1  UNL1        0.0636
     44 H          -1.2464    1.7871   -0.8289 H       1  UNL1        0.0636
     45 H           0.8336    3.0730   -0.6665 H       1  UNL1        0.0624
     46 H           3.0097    3.2635    1.2717 H       1  UNL1        0.0636
     47 H           5.5355   -0.3679   -2.8576 H       1  UNL1        0.0584
     48 H           7.1497    0.3827   -2.8764 H       1  UNL1        0.0584
     49 H           7.2519   -1.8878    0.2264 H       1  UNL1        0.2951
     50 H           2.5766   -0.0509    1.7448 H       1  UNL1        0.0624
     51 H           0.4886   -1.3245    1.6054 H       1  UNL1        0.0636
     52 H          -3.9830   -1.0980   -1.2233 H       1  UNL1        0.0636
     53 H          -6.1452    0.0362   -1.0688 H       1  UNL1        0.0624
@<TRIPOS>BOND
     1     1     2    2
     2     2     3    1
     3     3     4   ar
     4     4     5   ar
     5     5     6   ar
     6     6     7    1
     7     7     8    1
     8     8     9   ar
     9     9    10   ar
    10    10    11   ar
    11    11    12   ar
    12    12    13   ar
    13     7    14    1
    14    14    15   ar
    15    15    16   ar
    16    16    17   ar
    17    17    18    1
    18    18    19    2
    19    19    20    1
    20    20    21    1
    21    21    22    2
    22    21    23    1
    23    23    24    1
    24    24    25    1
    25    25    26    2
    26    25    27    1
    27    23    28   am
    28    28    29    2
    29    17    30   ar
    30    30    31   ar
    31     6    32   ar
    32    32    33   ar
    33    33     3   ar
    34    13     8   ar
    35    31    14   ar
    36    28    19    1
    37     1    34    1
    38     1    35    1
    39     2    36    1
    40     4    37    1
    41     5    38    1
    42     9    39    1
    43    10    40    1
    44    11    41    1
    45    12    42    1
    46    13    43    1
    47    15    44    1
    48    16    45    1
    49    18    46    1
    50    24    47    1
    51    24    48    1
    52    27    49    1
    53    30    50    1
    54    31    51    1
    55    32    52    1
    56    33    53    1
