@<TRIPOS>MOLECULE
*****
 60 64 0 0 0
SMALL
GASTEIGER

@<TRIPOS>ATOM
      1 C          -5.6690    4.5642    3.5307 C.2     1  UNL1       -0.0981
      2 C          -6.2905    3.5404    2.9312 C.2     1  UNL1       -0.0617
      3 C          -5.6189    2.5085    2.1298 C.ar    1  UNL1       -0.0255
      4 C          -4.5006    2.7828    1.3353 C.ar    1  UNL1       -0.0528
      5 C          -3.9086    1.7764    0.5623 C.ar    1  UNL1       -0.0395
      6 C          -4.4251    0.4705    0.5534 C.ar    1  UNL1        0.0388
      7 N          -3.8156   -0.5661   -0.2448 N.pl3   1  UNL1       -0.2692
      8 C          -4.6443   -1.5126   -0.9540 C.ar    1  UNL1        0.0388
      9 C          -5.8168   -1.0985   -1.6108 C.ar    1  UNL1       -0.0400
     10 C          -6.6185   -2.0144   -2.2974 C.ar    1  UNL1       -0.0600
     11 C          -6.2619   -3.3601   -2.3383 C.ar    1  UNL1       -0.0616
     12 C          -5.1047   -3.7915   -1.6943 C.ar    1  UNL1       -0.0600
     13 C          -4.3024   -2.8756   -1.0086 C.ar    1  UNL1       -0.0400
     14 C          -2.3781   -0.6584   -0.3339 C.ar    1  UNL1        0.0388
     15 C          -1.5671   -0.4513    0.7936 C.ar    1  UNL1       -0.0394
     16 C          -0.1725   -0.5437    0.7073 C.ar    1  UNL1       -0.0518
     17 C           0.4520   -0.8472   -0.5092 C.ar    1  UNL1       -0.0112
     18 C           1.9130   -0.9370   -0.6227 C.ar    1  UNL1        0.0199
     19 C           2.7362   -0.3982   -1.5911 C.ar    1  UNL1       -0.0464
     20 C           4.1103   -0.7159   -1.3820 C.ar    1  UNL1       -0.0469
     21 C           4.3219   -1.4810   -0.2504 C.ar    1  UNL1        0.0140
     22 C           5.5143   -2.0296    0.2972 C.2     1  UNL1       -0.0291
     23 C           6.6644   -1.3686    0.4948 C.2     1  UNL1        0.0777
     24 S           8.0524   -2.1722    1.1540 S.3     1  UNL1       -0.0610
     25 C           9.0566   -0.7351    1.0787 C.2     1  UNL1        0.1210
     26 S          10.6604   -0.7450    1.5360 S.2     1  UNL1       -0.0272
     27 N           8.3124    0.3244    0.6155 N.am    1  UNL1       -0.2445
     28 C           8.8380    1.6688    0.3805 C.3     1  UNL1        0.1180
     29 C           9.3584    1.7581   -1.0423 C.2     1  UNL1        0.3227
     30 O           9.3980    0.8630   -1.8717 O.2     1  UNL1       -0.2492
     31 O           9.8227    2.9887   -1.3420 O.3     1  UNL1       -0.4795
     32 C           6.9994    0.0664    0.2572 C.2     1  UNL1        0.2588
     33 O           6.2314    0.9086   -0.1840 O.2     1  UNL1       -0.2690
     34 S           2.8212   -1.8420    0.5140 S.2     1  UNL1       -0.0888
     35 C          -0.3518   -1.0474   -1.6387 C.ar    1  UNL1       -0.0518
     36 C          -1.7462   -0.9576   -1.5518 C.ar    1  UNL1       -0.0394
     37 C          -5.5568    0.2071    1.3420 C.ar    1  UNL1       -0.0395
     38 C          -6.1481    1.2135    2.1151 C.ar    1  UNL1       -0.0528
     39 H          -6.2357    5.2827    4.1150 H       1  UNL1        0.0535
     40 H          -4.5953    4.7093    3.4766 H       1  UNL1        0.0535
     41 H          -7.3668    3.4332    3.0468 H       1  UNL1        0.0618
     42 H          -4.0817    3.7850    1.2931 H       1  UNL1        0.0624
     43 H          -3.0497    2.0292   -0.0551 H       1  UNL1        0.0636
     44 H          -6.1044   -0.0497   -1.6065 H       1  UNL1        0.0636
     45 H          -7.5186   -1.6736   -2.8021 H       1  UNL1        0.0618
     46 H          -6.8856   -4.0726   -2.8717 H       1  UNL1        0.0618
     47 H          -4.8256   -4.8415   -1.7206 H       1  UNL1        0.0618
     48 H          -3.4131   -3.2371   -0.4976 H       1  UNL1        0.0636
     49 H          -2.0174   -0.2311    1.7589 H       1  UNL1        0.0636
     50 H           0.4175   -0.3672    1.6039 H       1  UNL1        0.0624
     51 H           2.3747    0.2065   -2.4141 H       1  UNL1        0.0629
     52 H           4.9069   -0.3847   -2.0381 H       1  UNL1        0.0629
     53 H           5.4590   -3.0771    0.5915 H       1  UNL1        0.0641
     54 H           9.6513    1.8941    1.0747 H       1  UNL1        0.0584
     55 H           8.0386    2.4062    0.5067 H       1  UNL1        0.0584
     56 H          10.1213    2.9160   -2.2740 H       1  UNL1        0.2951
     57 H           0.0979   -1.2851   -2.6002 H       1  UNL1        0.0624
     58 H          -2.3376   -1.1076   -2.4523 H       1  UNL1        0.0636
     59 H          -5.9800   -0.7942    1.3745 H       1  UNL1        0.0636
     60 H          -7.0212    0.9671    2.7153 H       1  UNL1        0.0624
@<TRIPOS>BOND
     1     1     2    2
     2     2     3    1
     3     3     4   ar
     4     4     5   ar
     5     5     6   ar
     6     6     7    1
     7     7     8    1
     8     8     9   ar
     9     9    10   ar
    10    10    11   ar
    11    11    12   ar
    12    12    13   ar
    13     7    14    1
    14    14    15   ar
    15    15    16   ar
    16    16    17   ar
    17    17    18    1
    18    18    19   ar
    19    19    20   ar
    20    20    21   ar
    21    21    22    1
    22    22    23    2
    23    23    24    1
    24    24    25    1
    25    25    26    2
    26    25    27    1
    27    27    28    1
    28    28    29    1
    29    29    30    2
    30    29    31    1
    31    27    32   am
    32    32    33    2
    33    21    34   ar
    34    17    35   ar
    35    35    36   ar
    36     6    37   ar
    37    37    38   ar
    38    38     3   ar
    39    13     8   ar
    40    36    14   ar
    41    34    18   ar
    42    32    23    1
    43     1    39    1
    44     1    40    1
    45     2    41    1
    46     4    42    1
    47     5    43    1
    48     9    44    1
    49    10    45    1
    50    11    46    1
    51    12    47    1
    52    13    48    1
    53    15    49    1
    54    16    50    1
    55    19    51    1
    56    20    52    1
    57    22    53    1
    58    28    54    1
    59    28    55    1
    60    31    56    1
    61    35    57    1
    62    36    58    1
    63    37    59    1
    64    38    60    1
