@<TRIPOS>MOLECULE
*****
 51 55 0 0 0
SMALL
GASTEIGER

@<TRIPOS>ATOM
      1 C          -3.4286    5.6891    0.9800 C.2     1  UNL1       -0.0981
      2 C          -3.4273    4.4629    0.4412 C.2     1  UNL1       -0.0616
      3 C          -2.2194    3.7354    0.0248 C.ar    1  UNL1       -0.0236
      4 C          -1.1216    4.3833   -0.5406 C.ar    1  UNL1       -0.0539
      5 C           0.0153    3.6659   -0.9295 C.ar    1  UNL1       -0.0514
      6 C           0.0522    2.2639   -0.7757 C.ar    1  UNL1        0.0080
      7 C           1.0519    1.2826   -1.0362 C.ar    1  UNL1        0.0080
      8 C           2.3652    1.3586   -1.5486 C.ar    1  UNL1       -0.0514
      9 C           3.1139    0.1918   -1.7281 C.ar    1  UNL1       -0.0539
     10 C           2.5735   -1.0528   -1.4123 C.ar    1  UNL1       -0.0230
     11 C           3.3400   -2.2838   -1.6353 C.2     1  UNL1       -0.0535
     12 C           4.4957   -2.6645   -1.0653 C.2     1  UNL1       -0.0474
     13 C           5.2029   -1.9525   -0.0525 C.ar    1  UNL1        0.0122
     14 C           4.7598   -1.1405    0.9794 C.ar    1  UNL1       -0.0475
     15 C           5.8164   -0.6227    1.7842 C.ar    1  UNL1       -0.0542
     16 C           7.0466   -1.0649    1.3606 C.ar    1  UNL1       -0.0238
     17 S           6.9233   -2.1006    0.0097 S.2     1  UNL1       -0.0973
     18 C           1.2661   -1.1473   -0.9145 C.ar    1  UNL1       -0.0301
     19 C           0.5251    0.0353   -0.6945 C.ar    1  UNL1        0.0555
     20 N          -0.7738    0.2427   -0.2233 N.ar    1  UNL1       -0.3087
     21 C          -1.6611   -0.7799    0.2277 C.ar    1  UNL1        0.0474
     22 C          -1.1952   -1.7965    1.0669 C.ar    1  UNL1       -0.0344
     23 C          -2.0719   -2.7936    1.5031 C.ar    1  UNL1       -0.0180
     24 C          -3.4121   -2.7917    1.1085 C.ar    1  UNL1        0.1202
     25 O          -4.1550   -3.8258    1.6067 O.3     1  UNL1       -0.4951
     26 C          -5.5282   -3.8671    1.2398 C.3     1  UNL1        0.0788
     27 C          -3.8743   -1.7776    0.2695 C.ar    1  UNL1       -0.0180
     28 C          -3.0035   -0.7725   -0.1691 C.ar    1  UNL1       -0.0344
     29 C          -1.0685    1.6077   -0.2646 C.ar    1  UNL1        0.0555
     30 C          -2.2010    2.3380    0.1627 C.ar    1  UNL1       -0.0301
     31 H          -2.5166    6.2483    1.1612 H       1  UNL1        0.0535
     32 H          -4.3626    6.1583    1.2731 H       1  UNL1        0.0535
     33 H          -4.3718    3.9391    0.3118 H       1  UNL1        0.0618
     34 H          -1.1282    5.4610   -0.6847 H       1  UNL1        0.0624
     35 H           0.8694    4.1935   -1.3449 H       1  UNL1        0.0624
     36 H           2.7958    2.3206   -1.8123 H       1  UNL1        0.0624
     37 H           4.1237    0.2678   -2.1260 H       1  UNL1        0.0624
     38 H           2.8975   -2.9428   -2.3812 H       1  UNL1        0.0624
     39 H           4.9364   -3.5989   -1.4098 H       1  UNL1        0.0629
     40 H           3.7143   -0.9219    1.1593 H       1  UNL1        0.0629
     41 H           5.6757    0.0358    2.6323 H       1  UNL1        0.0623
     42 H           8.0147   -0.8356    1.7838 H       1  UNL1        0.0693
     43 H           0.8364   -2.1237   -0.7103 H       1  UNL1        0.0644
     44 H          -0.1699   -1.8107    1.4280 H       1  UNL1        0.0639
     45 H          -1.7084   -3.5766    2.1648 H       1  UNL1        0.0655
     46 H          -5.6440   -3.9851    0.1574 H       1  UNL1        0.0660
     47 H          -5.9763   -4.7426    1.7197 H       1  UNL1        0.0660
     48 H          -6.0603   -2.9808    1.6008 H       1  UNL1        0.0660
     49 H          -4.9040   -1.7423   -0.0705 H       1  UNL1        0.0655
     50 H          -3.3838   -0.0187   -0.8548 H       1  UNL1        0.0639
     51 H          -3.0441    1.8322    0.6245 H       1  UNL1        0.0644
@<TRIPOS>BOND
     1     1     2    2
     2     2     3    1
     3     3     4   ar
     4     4     5   ar
     5     5     6   ar
     6     6     7   ar
     7     7     8   ar
     8     8     9   ar
     9     9    10   ar
    10    10    11    1
    11    11    12    2
    12    12    13    1
    13    13    14   ar
    14    14    15   ar
    15    15    16   ar
    16    16    17   ar
    17    10    18   ar
    18    18    19   ar
    19    19    20   ar
    20    20    21    1
    21    21    22   ar
    22    22    23   ar
    23    23    24   ar
    24    24    25    1
    25    25    26    1
    26    24    27   ar
    27    27    28   ar
    28    20    29   ar
    29    29    30   ar
    30    30     3   ar
    31    29     6   ar
    32    19     7   ar
    33    28    21   ar
    34    17    13   ar
    35     1    31    1
    36     1    32    1
    37     2    33    1
    38     4    34    1
    39     5    35    1
    40     8    36    1
    41     9    37    1
    42    11    38    1
    43    12    39    1
    44    14    40    1
    45    15    41    1
    46    16    42    1
    47    18    43    1
    48    22    44    1
    49    23    45    1
    50    26    46    1
    51    26    47    1
    52    26    48    1
    53    27    49    1
    54    28    50    1
    55    30    51    1
