@<TRIPOS>MOLECULE
*****
 64 69 0 0 0
SMALL
GASTEIGER

@<TRIPOS>ATOM
      1 C          -8.6676    1.8634    1.8492 C.2     1  UNL1       -0.0981
      2 C          -7.8150    2.8878    1.7171 C.2     1  UNL1       -0.0616
      3 C          -6.3511    2.7553    1.6854 C.ar    1  UNL1       -0.0236
      4 C          -5.5768    3.7646    2.2568 C.ar    1  UNL1       -0.0539
      5 C          -4.1796    3.6892    2.2540 C.ar    1  UNL1       -0.0514
      6 C          -3.5340    2.5937    1.6430 C.ar    1  UNL1        0.0080
      7 C          -2.1650    2.2224    1.5088 C.ar    1  UNL1        0.0080
      8 C          -0.9591    2.8168    1.9378 C.ar    1  UNL1       -0.0514
      9 C           0.2667    2.2236    1.6176 C.ar    1  UNL1       -0.0539
     10 C           0.3176    1.0581    0.8540 C.ar    1  UNL1       -0.0230
     11 C           1.5927    0.4134    0.5076 C.2     1  UNL1       -0.0535
     12 C           2.6719    1.0896    0.0831 C.2     1  UNL1       -0.0472
     13 C           3.9005    0.4351   -0.2306 C.ar    1  UNL1        0.0157
     14 S           5.3589    1.2151    0.2489 S.2     1  UNL1       -0.0881
     15 C           6.3581   -0.0324   -0.3595 C.ar    1  UNL1        0.0267
     16 C           7.8051   -0.0101   -0.2674 C.ar    1  UNL1        0.0262
     17 C           8.6928   -0.7732   -1.0095 C.ar    1  UNL1       -0.0435
     18 C          10.0701   -0.5390   -0.6842 C.ar    1  UNL1       -0.0428
     19 C          11.2214   -1.2227   -1.3389 C.3     1  UNL1       -0.0392
     20 C          10.1781    0.4130    0.3082 C.ar    1  UNL1       -0.0208
     21 S           8.6624    0.9940    0.8321 S.2     1  UNL1       -0.0959
     22 C           5.5850   -1.0121   -0.9521 C.ar    1  UNL1       -0.0429
     23 C           4.1720   -0.7515   -0.9024 C.ar    1  UNL1       -0.0356
     24 C           3.1634   -1.6657   -1.5219 C.3     1  UNL1       -0.0386
     25 C          -0.8754    0.4472    0.4370 C.ar    1  UNL1       -0.0301
     26 C          -2.1150    1.0258    0.7918 C.ar    1  UNL1        0.0555
     27 N          -3.4302    0.6584    0.4959 N.ar    1  UNL1       -0.3087
     28 C          -3.8177   -0.5095   -0.2265 C.ar    1  UNL1        0.0474
     29 C          -4.7998   -0.4296   -1.2183 C.ar    1  UNL1       -0.0344
     30 C          -5.1712   -1.5781   -1.9225 C.ar    1  UNL1       -0.0180
     31 C          -4.5760   -2.8114   -1.6462 C.ar    1  UNL1        0.1202
     32 O          -5.0352   -3.8500   -2.4079 O.3     1  UNL1       -0.4951
     33 C          -4.4600   -5.1279   -2.1681 C.3     1  UNL1        0.0788
     34 C          -3.5983   -2.8895   -0.6542 C.ar    1  UNL1       -0.0180
     35 C          -3.2173   -1.7427    0.0533 C.ar    1  UNL1       -0.0344
     36 C          -4.3062    1.6119    1.0205 C.ar    1  UNL1        0.0555
     37 C          -5.7184    1.6700    1.0581 C.ar    1  UNL1       -0.0301
     38 H          -8.3346    0.8358    1.9523 H       1  UNL1        0.0535
     39 H          -9.7383    2.0409    1.8747 H       1  UNL1        0.0535
     40 H          -8.2069    3.9002    1.6476 H       1  UNL1        0.0618
     41 H          -6.0514    4.6175    2.7374 H       1  UNL1        0.0624
     42 H          -3.5963    4.4720    2.7309 H       1  UNL1        0.0624
     43 H          -0.9779    3.7375    2.5145 H       1  UNL1        0.0624
     44 H           1.1807    2.6930    1.9746 H       1  UNL1        0.0624
     45 H           1.6102   -0.6666    0.6200 H       1  UNL1        0.0624
     46 H           2.6429    2.1736   -0.0021 H       1  UNL1        0.0629
     47 H           8.3760   -1.4765   -1.7704 H       1  UNL1        0.0632
     48 H          10.9572   -2.2472   -1.6206 H       1  UNL1        0.0278
     49 H          11.5168   -0.6807   -2.2430 H       1  UNL1        0.0278
     50 H          12.0849   -1.2715   -0.6674 H       1  UNL1        0.0278
     51 H          11.0825    0.8003    0.7577 H       1  UNL1        0.0696
     52 H           6.0056   -1.8958   -1.4169 H       1  UNL1        0.0632
     53 H           2.7366   -2.3302   -0.7644 H       1  UNL1        0.0278
     54 H           2.3543   -1.1013   -1.9958 H       1  UNL1        0.0278
     55 H           3.6240   -2.2886   -2.2961 H       1  UNL1        0.0278
     56 H          -0.8357   -0.4467   -0.1786 H       1  UNL1        0.0644
     57 H          -5.2582    0.5184   -1.4892 H       1  UNL1        0.0639
     58 H          -5.9279   -1.5095   -2.7008 H       1  UNL1        0.0655
     59 H          -4.6630   -5.4668   -1.1467 H       1  UNL1        0.0660
     60 H          -4.9292   -5.8397   -2.8540 H       1  UNL1        0.0660
     61 H          -3.3851   -5.1230   -2.3774 H       1  UNL1        0.0660
     62 H          -3.1178   -3.8280   -0.3984 H       1  UNL1        0.0655
     63 H          -2.4823   -1.8431    0.8487 H       1  UNL1        0.0639
     64 H          -6.3149    0.8796    0.6136 H       1  UNL1        0.0644
@<TRIPOS>BOND
     1     1     2    2
     2     2     3    1
     3     3     4   ar
     4     4     5   ar
     5     5     6   ar
     6     6     7   ar
     7     7     8   ar
     8     8     9   ar
     9     9    10   ar
    10    10    11    1
    11    11    12    2
    12    12    13    1
    13    13    14   ar
    14    14    15   ar
    15    15    16    1
    16    16    17   ar
    17    17    18   ar
    18    18    19    1
    19    18    20   ar
    20    20    21   ar
    21    15    22   ar
    22    22    23   ar
    23    23    24    1
    24    10    25   ar
    25    25    26   ar
    26    26    27   ar
    27    27    28    1
    28    28    29   ar
    29    29    30   ar
    30    30    31   ar
    31    31    32    1
    32    32    33    1
    33    31    34   ar
    34    34    35   ar
    35    27    36   ar
    36    36    37   ar
    37    37     3   ar
    38    36     6   ar
    39    26     7   ar
    40    35    28   ar
    41    23    13   ar
    42    21    16   ar
    43     1    38    1
    44     1    39    1
    45     2    40    1
    46     4    41    1
    47     5    42    1
    48     8    43    1
    49     9    44    1
    50    11    45    1
    51    12    46    1
    52    17    47    1
    53    19    48    1
    54    19    49    1
    55    19    50    1
    56    20    51    1
    57    22    52    1
    58    24    53    1
    59    24    54    1
    60    24    55    1
    61    25    56    1
    62    29    57    1
    63    30    58    1
    64    33    59    1
    65    33    60    1
    66    33    61    1
    67    34    62    1
    68    35    63    1
    69    37    64    1
