@<TRIPOS>MOLECULE
*****
 78 85 0 0 0
SMALL
GASTEIGER

@<TRIPOS>ATOM
      1 C          -9.2961    2.9550   -2.9854 C.2     1  UNL1       -0.0981
      2 C          -8.0971    3.4688   -2.6875 C.2     1  UNL1       -0.0616
      3 C          -6.9013    2.6531   -2.4437 C.ar    1  UNL1       -0.0236
      4 C          -5.6961    3.0309   -3.0335 C.ar    1  UNL1       -0.0539
      5 C          -4.5213    2.3111   -2.7883 C.ar    1  UNL1       -0.0514
      6 C          -4.5472    1.1894   -1.9324 C.ar    1  UNL1        0.0080
      7 C          -3.5394    0.2939   -1.4705 C.ar    1  UNL1        0.0080
      8 C          -2.1561    0.1870   -1.7273 C.ar    1  UNL1       -0.0514
      9 C          -1.4143   -0.8422   -1.1379 C.ar    1  UNL1       -0.0539
     10 C          -2.0174   -1.7604   -0.2796 C.ar    1  UNL1       -0.0230
     11 C          -1.2667   -2.8720    0.3262 C.2     1  UNL1       -0.0535
     12 C          -0.0718   -2.8549    0.9410 C.2     1  UNL1       -0.0472
     13 C           0.7220   -1.6919    1.1551 C.ar    1  UNL1        0.0157
     14 S           2.3302   -1.6994    0.5431 S.2     1  UNL1       -0.0881
     15 C           2.6444   -0.1028    1.0671 C.ar    1  UNL1        0.0267
     16 C           3.8924    0.5784    0.8079 C.ar    1  UNL1        0.0265
     17 C           4.0659    1.9368    0.6299 C.ar    1  UNL1       -0.0458
     18 C           5.4295    2.2947    0.4075 C.ar    1  UNL1       -0.0458
     19 C           6.2821    1.2050    0.4279 C.ar    1  UNL1        0.0265
     20 C           7.7229    1.2312    0.2641 C.ar    1  UNL1        0.0265
     21 C           8.5464    2.3355    0.3834 C.ar    1  UNL1       -0.0458
     22 C           9.9240    2.0266    0.1752 C.ar    1  UNL1       -0.0458
     23 C          10.1423    0.6901   -0.1089 C.ar    1  UNL1        0.0265
     24 C          11.4244    0.0533   -0.3566 C.ar    1  UNL1        0.0262
     25 C          12.6682    0.6658   -0.3527 C.ar    1  UNL1       -0.0435
     26 C          13.7585   -0.2275   -0.6218 C.ar    1  UNL1       -0.0428
     27 C          15.1930    0.1752   -0.6668 C.3     1  UNL1       -0.0392
     28 C          13.2940   -1.5103   -0.8219 C.ar    1  UNL1       -0.0208
     29 S          11.5971   -1.6233   -0.6973 S.2     1  UNL1       -0.0959
     30 S           8.6485   -0.1574   -0.1281 S.2     1  UNL1       -0.0872
     31 S           5.3958   -0.2388    0.7099 S.2     1  UNL1       -0.0872
     32 C           1.5523    0.4091    1.7384 C.ar    1  UNL1       -0.0429
     33 C           0.4459   -0.5046    1.8226 C.ar    1  UNL1       -0.0356
     34 C          -0.8243   -0.1747    2.5395 C.3     1  UNL1       -0.0386
     35 C          -3.3972   -1.6752   -0.0315 C.ar    1  UNL1       -0.0301
     36 C          -4.1441   -0.6242   -0.6096 C.ar    1  UNL1        0.0555
     37 N          -5.5046   -0.3116   -0.5527 N.ar    1  UNL1       -0.3087
     38 C          -6.4838   -1.0189    0.2051 C.ar    1  UNL1        0.0474
     39 C          -7.7153   -1.3498   -0.3732 C.ar    1  UNL1       -0.0344
     40 C          -8.6774   -2.0431    0.3692 C.ar    1  UNL1       -0.0180
     41 C          -8.4203   -2.4004    1.6930 C.ar    1  UNL1        0.1202
     42 O          -9.2752   -3.0644    2.5279 O.3     1  UNL1       -0.4951
     43 C         -10.5311   -3.4534    1.9868 C.3     1  UNL1        0.0788
     44 C          -7.1912   -2.0636    2.2670 C.ar    1  UNL1       -0.0180
     45 C          -6.2213   -1.3800    1.5300 C.ar    1  UNL1       -0.0344
     46 C          -5.7590    0.7996   -1.3593 C.ar    1  UNL1        0.0555
     47 C          -6.9394    1.5436   -1.5845 C.ar    1  UNL1       -0.0301
     48 H         -10.1459    3.6062   -3.1637 H       1  UNL1        0.0535
     49 H          -9.4616    1.8876   -3.0758 H       1  UNL1        0.0535
     50 H          -7.9644    4.5453   -2.6319 H       1  UNL1        0.0618
     51 H          -5.6532    3.8953   -3.6923 H       1  UNL1        0.0624
     52 H          -3.5892    2.6278   -3.2485 H       1  UNL1        0.0624
     53 H          -1.6654    0.8896   -2.3957 H       1  UNL1        0.0624
     54 H          -0.3545   -0.9178   -1.3729 H       1  UNL1        0.0624
     55 H          -1.7680   -3.8358    0.2404 H       1  UNL1        0.0624
     56 H           0.3446   -3.8015    1.2807 H       1  UNL1        0.0629
     57 H           3.2516    2.6508    0.6461 H       1  UNL1        0.0629
     58 H           5.7581    3.3134    0.2374 H       1  UNL1        0.0629
     59 H           8.1890    3.3280    0.6286 H       1  UNL1        0.0629
     60 H          10.7134    2.7641    0.2439 H       1  UNL1        0.0629
     61 H          12.8077    1.7229   -0.1606 H       1  UNL1        0.0632
     62 H          15.6429    0.0715    0.3257 H       1  UNL1        0.0278
     63 H          15.7544   -0.4500   -1.3687 H       1  UNL1        0.0278
     64 H          15.2985    1.2161   -0.9886 H       1  UNL1        0.0278
     65 H          13.8732   -2.3974   -1.0399 H       1  UNL1        0.0696
     66 H           1.5396    1.4002    2.1775 H       1  UNL1        0.0632
     67 H          -1.3248   -1.0736    2.9094 H       1  UNL1        0.0278
     68 H          -0.6216    0.4672    3.4034 H       1  UNL1        0.0278
     69 H          -1.5082    0.3619    1.8771 H       1  UNL1        0.0278
     70 H          -3.8805   -2.4199    0.5952 H       1  UNL1        0.0644
     71 H          -7.9315   -1.1105   -1.4116 H       1  UNL1        0.0639
     72 H          -9.6150   -2.2873   -0.1175 H       1  UNL1        0.0655
     73 H         -11.0811   -3.9825    2.7711 H       1  UNL1        0.0660
     74 H         -10.4049   -4.1443    1.1472 H       1  UNL1        0.0660
     75 H         -11.1230   -2.5785    1.6961 H       1  UNL1        0.0660
     76 H          -6.9935   -2.3264    3.3046 H       1  UNL1        0.0655
     77 H          -5.2933   -1.0972    2.0226 H       1  UNL1        0.0639
     78 H          -7.8642    1.2853   -1.0763 H       1  UNL1        0.0644
@<TRIPOS>BOND
     1     1     2    2
     2     2     3    1
     3     3     4   ar
     4     4     5   ar
     5     5     6   ar
     6     6     7   ar
     7     7     8   ar
     8     8     9   ar
     9     9    10   ar
    10    10    11    1
    11    11    12    2
    12    12    13    1
    13    13    14   ar
    14    14    15   ar
    15    15    16    1
    16    16    17   ar
    17    17    18   ar
    18    18    19   ar
    19    19    20    1
    20    20    21   ar
    21    21    22   ar
    22    22    23   ar
    23    23    24    1
    24    24    25   ar
    25    25    26   ar
    26    26    27    1
    27    26    28   ar
    28    28    29   ar
    29    23    30   ar
    30    19    31   ar
    31    15    32   ar
    32    32    33   ar
    33    33    34    1
    34    10    35   ar
    35    35    36   ar
    36    36    37   ar
    37    37    38    1
    38    38    39   ar
    39    39    40   ar
    40    40    41   ar
    41    41    42    1
    42    42    43    1
    43    41    44   ar
    44    44    45   ar
    45    37    46   ar
    46    46    47   ar
    47    47     3   ar
    48    46     6   ar
    49    36     7   ar
    50    45    38   ar
    51    33    13   ar
    52    31    16   ar
    53    30    20   ar
    54    29    24   ar
    55     1    48    1
    56     1    49    1
    57     2    50    1
    58     4    51    1
    59     5    52    1
    60     8    53    1
    61     9    54    1
    62    11    55    1
    63    12    56    1
    64    17    57    1
    65    18    58    1
    66    21    59    1
    67    22    60    1
    68    25    61    1
    69    27    62    1
    70    27    63    1
    71    27    64    1
    72    28    65    1
    73    32    66    1
    74    34    67    1
    75    34    68    1
    76    34    69    1
    77    35    70    1
    78    39    71    1
    79    40    72    1
    80    43    73    1
    81    43    74    1
    82    43    75    1
    83    44    76    1
    84    45    77    1
    85    47    78    1
