@<TRIPOS>MOLECULE
*****
 40 43 0 0 0
SMALL
GASTEIGER

@<TRIPOS>ATOM
      1 C          -3.9180   -4.0553   -0.0464 C.2     1  UNL1       -0.0981
      2 C          -3.0106   -3.2794    0.5606 C.2     1  UNL1       -0.0616
      3 C          -2.7988   -1.8561    0.2600 C.ar    1  UNL1       -0.0236
      4 C          -3.8573   -0.9969   -0.0330 C.ar    1  UNL1       -0.0539
      5 C          -3.6355    0.3661   -0.2605 C.ar    1  UNL1       -0.0514
      6 C          -2.3259    0.8879   -0.2014 C.ar    1  UNL1        0.0080
      7 C          -1.7948    2.2024   -0.3463 C.ar    1  UNL1        0.0079
      8 C          -2.3869    3.4569   -0.6143 C.ar    1  UNL1       -0.0520
      9 C          -1.5863    4.5945   -0.7393 C.ar    1  UNL1       -0.0611
     10 C          -0.2074    4.4962   -0.6150 C.ar    1  UNL1       -0.0598
     11 C           0.4019    3.2669   -0.3469 C.ar    1  UNL1       -0.0372
     12 C          -0.4095    2.1239   -0.1829 C.ar    1  UNL1        0.0549
     13 N          -0.0918    0.7866    0.0679 N.ar    1  UNL1       -0.3087
     14 C           1.2232    0.2781    0.2898 C.ar    1  UNL1        0.0474
     15 C           2.1098    0.9607    1.1280 C.ar    1  UNL1       -0.0344
     16 C           3.3949    0.4543    1.3400 C.ar    1  UNL1       -0.0180
     17 C           3.8103   -0.7272    0.7209 C.ar    1  UNL1        0.1202
     18 O           5.0911   -1.1057    1.0145 O.3     1  UNL1       -0.4951
     19 C           5.5625   -2.3035    0.4104 C.3     1  UNL1        0.0788
     20 C           2.9250   -1.4055   -0.1171 C.ar    1  UNL1       -0.0180
     21 C           1.6341   -0.9071   -0.3317 C.ar    1  UNL1       -0.0344
     22 C          -1.2625    0.0239    0.0639 C.ar    1  UNL1        0.0555
     23 C          -1.4936   -1.3442    0.3353 C.ar    1  UNL1       -0.0301
     24 H          -4.0116   -5.1028    0.2224 H       1  UNL1        0.0535
     25 H          -4.5737   -3.6844   -0.8273 H       1  UNL1        0.0535
     26 H          -2.3605   -3.7124    1.3176 H       1  UNL1        0.0618
     27 H          -4.8790   -1.3676   -0.0638 H       1  UNL1        0.0624
     28 H          -4.4766    1.0218   -0.4676 H       1  UNL1        0.0624
     29 H          -3.4636    3.5382   -0.7333 H       1  UNL1        0.0624
     30 H          -2.0460    5.5568   -0.9498 H       1  UNL1        0.0618
     31 H           0.4096    5.3838   -0.7364 H       1  UNL1        0.0618
     32 H           1.4846    3.2106   -0.2880 H       1  UNL1        0.0638
     33 H           1.8103    1.8610    1.6587 H       1  UNL1        0.0639
     34 H           4.0778    0.9821    2.0018 H       1  UNL1        0.0655
     35 H           5.5783   -2.2153   -0.6810 H       1  UNL1        0.0660
     36 H           6.5915   -2.4647    0.7460 H       1  UNL1        0.0660
     37 H           4.9692   -3.1668    0.7294 H       1  UNL1        0.0660
     38 H           3.2077   -2.3205   -0.6269 H       1  UNL1        0.0655
     39 H           0.9809   -1.4366   -1.0219 H       1  UNL1        0.0639
     40 H          -0.6727   -2.0007    0.6088 H       1  UNL1        0.0644
@<TRIPOS>BOND
     1     1     2    2
     2     2     3    1
     3     3     4   ar
     4     4     5   ar
     5     5     6   ar
     6     6     7   ar
     7     7     8   ar
     8     8     9   ar
     9     9    10   ar
    10    10    11   ar
    11    11    12   ar
    12    12    13   ar
    13    13    14    1
    14    14    15   ar
    15    15    16   ar
    16    16    17   ar
    17    17    18    1
    18    18    19    1
    19    17    20   ar
    20    20    21   ar
    21    13    22   ar
    22    22    23   ar
    23    23     3   ar
    24    22     6   ar
    25    12     7   ar
    26    21    14   ar
    27     1    24    1
    28     1    25    1
    29     2    26    1
    30     4    27    1
    31     5    28    1
    32     8    29    1
    33     9    30    1
    34    10    31    1
    35    11    32    1
    36    15    33    1
    37    16    34    1
    38    19    35    1
    39    19    36    1
    40    19    37    1
    41    20    38    1
    42    21    39    1
    43    23    40    1
