@<TRIPOS>MOLECULE
*****
 19 19 0 0 0
SMALL
GASTEIGER

@<TRIPOS>ATOM
      1 C           2.7101   -1.0895    0.6242 C.2     1  UNL1       -0.0976
      2 C           1.6789   -0.7613   -0.1653 C.2     1  UNL1       -0.0543
      3 C           1.0995    0.5450   -0.1809 C.ar    1  UNL1        0.0256
      4 S           2.1377    1.9304   -0.2832 S.2     1  UNL1       -0.0964
      5 C           0.8349    3.0193   -0.3117 C.ar    1  UNL1       -0.0230
      6 C          -0.3710    2.3679   -0.2579 C.ar    1  UNL1       -0.0401
      7 C          -0.2435    0.9314   -0.1837 C.ar    1  UNL1        0.0731
      8 C          -1.4200    0.0549   -0.1107 C.2     1  UNL1        0.3400
      9 O          -2.5653    0.4918   -0.1626 O.2     1  UNL1       -0.2449
     10 O          -1.1277   -1.2704    0.0254 O.3     1  UNL1       -0.4644
     11 C          -2.2730   -2.1180    0.1133 C.3     1  UNL1        0.0820
     12 H           3.1063   -2.1001    0.6139 H       1  UNL1        0.0535
     13 H           3.1798   -0.3840    1.3024 H       1  UNL1        0.0535
     14 H           1.2358   -1.5270   -0.7974 H       1  UNL1        0.0623
     15 H           1.0101    4.0849   -0.3707 H       1  UNL1        0.0694
     16 H          -1.3239    2.8863   -0.2686 H       1  UNL1        0.0631
     17 H          -2.8706   -2.0518   -0.8012 H       1  UNL1        0.0661
     18 H          -1.9235   -3.1483    0.2236 H       1  UNL1        0.0661
     19 H          -2.8745   -1.8614    0.9910 H       1  UNL1        0.0661
@<TRIPOS>BOND
     1     1     2    2
     2     2     3    1
     3     3     4   ar
     4     4     5   ar
     5     5     6   ar
     6     6     7   ar
     7     7     8    1
     8     8     9    2
     9     8    10    1
    10    10    11    1
    11     7     3   ar
    12     1    12    1
    13     1    13    1
    14     2    14    1
    15     5    15    1
    16     6    16    1
    17    11    17    1
    18    11    18    1
    19    11    19    1
