@<TRIPOS>MOLECULE
*****
 39 40 0 0 0
SMALL
GASTEIGER

@<TRIPOS>ATOM
      1 C          -2.2961    4.2359   -1.3187 C.2     1  UNL1       -0.1023
      2 C          -1.4788    3.1968   -1.1015 C.2     1  UNL1       -0.0866
      3 C          -1.2855    2.5389    0.2381 C.3     1  UNL1       -0.0048
      4 C          -1.5420    1.0524    0.2010 C.ar    1  UNL1        0.0174
      5 C          -2.8187    0.5187    0.3620 C.ar    1  UNL1        0.0478
      6 C          -4.0312    1.3785    0.5765 C.3     1  UNL1       -0.0219
      7 N          -3.0570   -0.8081    0.3437 N.ar    1  UNL1       -0.2268
      8 C          -2.0071   -1.6162    0.1610 C.ar    1  UNL1        0.1899
      9 S          -2.2583   -3.3750    0.1417 S.3     1  UNL1       -0.0894
     10 C          -4.0453   -3.4511    0.4080 C.3     1  UNL1       -0.0106
     11 N          -0.7502   -1.1979   -0.0126 N.ar    1  UNL1       -0.2065
     12 C          -0.5160    0.1247   -0.0024 C.ar    1  UNL1        0.1310
     13 N           0.8082    0.5937   -0.2006 N.pl3   1  UNL1       -0.2991
     14 C           2.0202   -0.1321   -0.1641 C.ar    1  UNL1        0.0324
     15 C           3.1463    0.3969   -0.8156 C.ar    1  UNL1       -0.0397
     16 C           4.3885   -0.2466   -0.7578 C.ar    1  UNL1       -0.0460
     17 C           4.5321   -1.4254   -0.0211 C.ar    1  UNL1        0.0589
     18 C           5.8253   -2.1441    0.0748 C.2     1  UNL1        0.3368
     19 O           6.0353   -3.1592    0.7124 O.2     1  UNL1       -0.2451
     20 O           6.8035   -1.5552   -0.6368 O.3     1  UNL1       -0.4771
     21 C           3.4295   -1.9437    0.6622 C.ar    1  UNL1       -0.0460
     22 C           2.1912   -1.2931    0.5993 C.ar    1  UNL1       -0.0397
     23 H          -2.8866    4.6796   -0.5227 H       1  UNL1        0.0532
     24 H          -2.3913    4.6700   -2.3101 H       1  UNL1        0.0532
     25 H          -0.9103    2.8027   -1.9414 H       1  UNL1        0.0570
     26 H          -0.2640    2.7423    0.5817 H       1  UNL1        0.0357
     27 H          -1.9210    3.0059    1.0005 H       1  UNL1        0.0357
     28 H          -3.9309    1.9647    1.4948 H       1  UNL1        0.0293
     29 H          -4.1863    2.0472   -0.2744 H       1  UNL1        0.0293
     30 H          -4.9305    0.7608    0.6772 H       1  UNL1        0.0293
     31 H          -4.3161   -3.0031    1.3682 H       1  UNL1        0.0345
     32 H          -4.3573   -4.4992    0.4212 H       1  UNL1        0.0345
     33 H          -4.5820   -2.9462   -0.4001 H       1  UNL1        0.0345
     34 H           0.8130    1.2796   -0.9473 H       1  UNL1        0.1536
     35 H           3.0694    1.3208   -1.3836 H       1  UNL1        0.0636
     36 H           5.2350    0.1848   -1.2860 H       1  UNL1        0.0626
     37 H           7.5797   -2.1337   -0.4827 H       1  UNL1        0.2954
     38 H           3.5236   -2.8527    1.2530 H       1  UNL1        0.0626
     39 H           1.3616   -1.7124    1.1632 H       1  UNL1        0.0636
@<TRIPOS>BOND
     1     1     2    2
     2     2     3    1
     3     3     4    1
     4     4     5   ar
     5     5     6    1
     6     5     7   ar
     7     7     8   ar
     8     8     9    1
     9     9    10    1
    10     8    11   ar
    11    11    12   ar
    12    12    13    1
    13    13    14    1
    14    14    15   ar
    15    15    16   ar
    16    16    17   ar
    17    17    18    1
    18    18    19    2
    19    18    20    1
    20    17    21   ar
    21    21    22   ar
    22    12     4   ar
    23    22    14   ar
    24     1    23    1
    25     1    24    1
    26     2    25    1
    27     3    26    1
    28     3    27    1
    29     6    28    1
    30     6    29    1
    31     6    30    1
    32    10    31    1
    33    10    32    1
    34    10    33    1
    35    13    34    1
    36    15    35    1
    37    16    36    1
    38    20    37    1
    39    21    38    1
    40    22    39    1
