@<TRIPOS>MOLECULE
*****
 34 35 0 0 0
SMALL
GASTEIGER

@<TRIPOS>ATOM
      1 C           1.0791    3.5438    0.3418 C.2     1  UNL1       -0.0991
      2 C           0.1581    2.6012    0.0967 C.2     1  UNL1       -0.0515
      3 C          -0.1104    1.4060    0.9685 C.3     1  UNL1        0.1060
      4 N          -0.0271    0.1807    0.1826 N.pl3   1  UNL1       -0.1618
      5 C           1.1854   -0.4897    0.0132 C.2     1  UNL1        0.2874
      6 S           2.7412    0.2855   -0.0129 S.3     1  UNL1       -0.0519
      7 C           3.7002   -0.9927   -0.8814 C.3     1  UNL1        0.0793
      8 C           5.1145   -0.5174   -1.1539 C.2     1  UNL1        0.2208
      9 N           5.7900    0.0209   -0.0933 N.am    1  UNL1       -0.3286
     10 O           5.6774   -0.6622   -2.2353 O.2     1  UNL1       -0.2751
     11 N           1.0682   -1.7929   -0.1281 N.2     1  UNL1       -0.0431
     12 N          -0.2826   -2.0244    0.0258 N.pl3   1  UNL1       -0.1075
     13 C          -1.0060   -0.8258    0.1272 C.2     1  UNL1        0.2998
     14 C          -2.3646   -0.7900    0.1160 C.2     1  UNL1        0.1095
     15 C          -3.1589   -2.0231    0.2215 C.2     1  UNL1       -0.0294
     16 C          -4.4997   -2.0178    0.2833 C.2     1  UNL1        0.0189
     17 BR         -5.4823   -3.5974    0.4492 Br      1  UNL1       -0.0503
     18 C          -5.2353   -0.7775    0.2467 C.2     1  UNL1       -0.0441
     19 C          -4.6222    0.4025    0.0998 C.2     1  UNL1       -0.0130
     20 C          -3.1457    0.4923   -0.0458 C.2     1  UNL1        0.1936
     21 O          -2.6641    1.5799   -0.3332 O.2     1  UNL1       -0.2870
     22 H           1.2062    4.3799   -0.3394 H       1  UNL1        0.0533
     23 H           1.7255    3.5023    1.2124 H       1  UNL1        0.0533
     24 H          -0.4645    2.6975   -0.7906 H       1  UNL1        0.0603
     25 H          -1.0880    1.5183    1.4471 H       1  UNL1        0.0777
     26 H           0.6002    1.3639    1.8045 H       1  UNL1        0.0777
     27 H           3.2232   -1.2148   -1.8413 H       1  UNL1        0.0476
     28 H           3.7570   -1.9073   -0.2831 H       1  UNL1        0.0476
     29 H           5.2555    0.4402    0.6582 H       1  UNL1        0.1450
     30 H           6.6887    0.4328   -0.3092 H       1  UNL1        0.1450
     31 H          -0.6935   -2.7675   -0.5343 H       1  UNL1        0.3273
     32 H          -2.6395   -2.9734    0.2953 H       1  UNL1        0.0638
     33 H          -6.3177   -0.8112    0.3363 H       1  UNL1        0.0630
     34 H          -5.1684    1.3371    0.0528 H       1  UNL1        0.0656
@<TRIPOS>BOND
     1     1     2    2
     2     2     3    1
     3     3     4    1
     4     4     5    1
     5     5     6    1
     6     6     7    1
     7     7     8    1
     8     8     9   am
     9     8    10    2
    10     5    11    2
    11    11    12    1
    12    12    13    1
    13    13    14    2
    14    14    15    1
    15    15    16    2
    16    16    17    1
    17    16    18    1
    18    18    19    2
    19    19    20    1
    20    20    21    2
    21    13     4    1
    22    20    14    1
    23     1    22    1
    24     1    23    1
    25     2    24    1
    26     3    25    1
    27     3    26    1
    28     7    27    1
    29     7    28    1
    30     9    29    1
    31     9    30    1
    32    12    31    1
    33    15    32    1
    34    18    33    1
    35    19    34    1
