@<TRIPOS>MOLECULE
*****
 48 54 0 0 0
SMALL
GASTEIGER

@<TRIPOS>ATOM
      1 SI          1.6186   -0.3225   -2.0815 Si      1  UNL1        0.0000
      2 C           2.2166    0.6750   -0.4675 C.2     1  UNL1        0.0000
      3 C           1.1931    0.9157    0.3877 C.2     1  UNL1        0.0000
      4 C          -0.0020    0.3759   -0.1328 C.ar    1  UNL1        0.0000
      5 N          -1.2436    0.3707    0.4198 N.ar    1  UNL1        0.0000
      6 C          -2.1360   -0.2693   -0.4423 C.ar    1  UNL1        0.0000
      7 C          -1.3666   -0.7191   -1.5369 C.ar    1  UNL1        0.0000
      8 N          -1.8572   -1.4427   -2.5619 N.ar    1  UNL1        0.0000
      9 C          -3.1627   -1.7442   -2.4508 C.ar    1  UNL1        0.0000
     10 C          -4.0213   -1.3525   -1.4225 C.ar    1  UNL1        0.0000
     11 C          -5.3540   -1.7693   -1.4434 C.ar    1  UNL1        0.0000
     12 C          -6.2316   -1.3943   -0.4319 C.ar    1  UNL1        0.0000
     13 C          -5.8172   -0.5622    0.6112 C.ar    1  UNL1        0.0000
     14 C          -6.7564   -0.1935    1.5896 C.ar    1  UNL1        0.0000
     15 C          -6.4146    0.6633    2.6295 C.ar    1  UNL1        0.0000
     16 C          -5.1297    1.1735    2.6911 C.ar    1  UNL1        0.0000
     17 C          -4.1853    0.8078    1.7248 C.ar    1  UNL1        0.0000
     18 C          -4.4770   -0.0916    0.6662 C.ar    1  UNL1        0.0000
     19 C          -3.5463   -0.5384   -0.3587 C.ar    1  UNL1        0.0000
     20 C          -0.0733   -0.2852   -1.3281 C.ar    1  UNL1        0.0000
     21 C           3.6227    1.0529   -0.3372 C.ar    1  UNL1        0.0000
     22 C           4.0047    2.2958   -0.8652 C.ar    1  UNL1        0.0000
     23 C           5.3239    2.7270   -0.7751 C.ar    1  UNL1        0.0000
     24 C           6.2741    1.9238   -0.1494 C.ar    1  UNL1        0.0000
     25 C           5.9204    0.6821    0.4005 C.ar    1  UNL1        0.0000
     26 C           6.8910   -0.1118    1.0344 C.ar    1  UNL1        0.0000
     27 C           6.5584   -1.3459    1.5912 C.ar    1  UNL1        0.0000
     28 C           5.2490   -1.8026    1.5233 C.ar    1  UNL1        0.0000
     29 C           4.2726   -1.0256    0.8962 C.ar    1  UNL1        0.0000
     30 C           4.5793    0.2292    0.3176 C.ar    1  UNL1        0.0000
     31 H           1.8095    0.5365   -3.2808 H       1  UNL1        0.0000
     32 H           2.2797   -1.6542   -2.1062 H       1  UNL1        0.0000
     33 H           1.2800    1.4410    1.3298 H       1  UNL1        0.0000
     34 H          -1.4592    0.7269    1.3359 H       1  UNL1        0.0000
     35 H          -3.5314   -2.3554   -3.2728 H       1  UNL1        0.0000
     36 H          -5.7265   -2.4019   -2.2469 H       1  UNL1        0.0000
     37 H          -7.2594   -1.7500   -0.4801 H       1  UNL1        0.0000
     38 H          -7.7771   -0.5690    1.5433 H       1  UNL1        0.0000
     39 H          -7.1542    0.9426    3.3747 H       1  UNL1        0.0000
     40 H          -4.8568    1.8667    3.4827 H       1  UNL1        0.0000
     41 H          -3.2207    1.2861    1.8073 H       1  UNL1        0.0000
     42 H           3.2713    2.9354   -1.3525 H       1  UNL1        0.0000
     43 H           5.6120    3.6888   -1.1909 H       1  UNL1        0.0000
     44 H           7.3008    2.2791   -0.0898 H       1  UNL1        0.0000
     45 H           7.9222    0.2289    1.1001 H       1  UNL1        0.0000
     46 H           7.3217   -1.9471    2.0777 H       1  UNL1        0.0000
     47 H           4.9818   -2.7628    1.9566 H       1  UNL1        0.0000
     48 H           3.2567   -1.4135    0.8647 H       1  UNL1        0.0000
@<TRIPOS>BOND
     1     1     2    1
     2     2     3    2
     3     3     4    1
     4     4     5   ar
     5     5     6   ar
     6     6     7   ar
     7     7     8   ar
     8     8     9   ar
     9     9    10   ar
    10    10    11   ar
    11    11    12   ar
    12    12    13   ar
    13    13    14   ar
    14    14    15   ar
    15    15    16   ar
    16    16    17   ar
    17    17    18   ar
    18    18    19   ar
    19     7    20   ar
    20     2    21    1
    21    21    22   ar
    22    22    23   ar
    23    23    24   ar
    24    24    25   ar
    25    25    26   ar
    26    26    27   ar
    27    27    28   ar
    28    28    29   ar
    29    29    30   ar
    30    20     1    1
    31    30    21   ar
    32    20     4   ar
    33    30    25   ar
    34    19     6   ar
    35    19    10   ar
    36    18    13   ar
    37     1    31    1
    38     1    32    1
    39     3    33    1
    40     5    34    1
    41     9    35    1
    42    11    36    1
    43    12    37    1
    44    14    38    1
    45    15    39    1
    46    16    40    1
    47    17    41    1
    48    22    42    1
    49    23    43    1
    50    24    44    1
    51    26    45    1
    52    27    46    1
    53    28    47    1
    54    29    48    1
