@<TRIPOS>MOLECULE
*****
 44 50 0 0 0
SMALL
GASTEIGER

@<TRIPOS>ATOM
      1 SI         -1.5738    0.9972    0.0056 Si      1  UNL1        0.0000
      2 C          -0.1544   -0.2439   -0.0587 C.2     1  UNL1        0.0000
      3 C          -0.5795   -1.4932    0.2191 C.2     1  UNL1        0.0000
      4 C          -2.0048   -1.6151    0.4947 C.2     1  UNL1        0.0000
      5 C          -2.7026   -0.4636    0.4219 C.2     1  UNL1        0.0000
      6 C          -4.1144   -0.2923    0.6860 C.ar    1  UNL1        0.0000
      7 C          -4.6711   -0.2639    1.9871 C.ar    1  UNL1        0.0000
      8 C          -6.0679   -0.0926    2.2539 C.ar    1  UNL1        0.0000
      9 C          -7.0501    0.0587    1.2512 C.ar    1  UNL1        0.0000
     10 C          -6.4986    0.0130   -0.0300 C.ar    1  UNL1        0.0000
     11 C          -7.2643    0.1226   -1.1644 C.ar    1  UNL1        0.0000
     12 S          -6.2988   -0.0002   -2.5804 S.2     1  UNL1        0.0000
     13 C          -4.8530   -0.1998   -1.6694 C.ar    1  UNL1        0.0000
     14 C          -5.0928   -0.1582   -0.3151 C.ar    1  UNL1        0.0000
     15 C           1.1792    0.1205   -0.3439 C.ar    1  UNL1        0.0000
     16 S           2.4570   -0.2283    0.7770 S.2     1  UNL1        0.0000
     17 C           3.6736    0.5068   -0.1942 C.ar    1  UNL1        0.0000
     18 C           5.0440    0.5688    0.2094 C.ar    1  UNL1        0.0000
     19 S           5.9504    2.0605    0.2489 S.2     1  UNL1        0.0000
     20 C           7.3964    1.3050    0.8348 C.ar    1  UNL1        0.0000
     21 C           7.1354   -0.0055    0.9855 C.ar    1  UNL1        0.0000
     22 O           8.0012   -0.9551    1.4315 O.2     1  UNL1        0.0000
     23 C           7.1797   -2.0660    1.3667 C.ar    1  UNL1        0.0000
     24 C           5.8851   -1.7964    0.9039 C.ar    1  UNL1        0.0000
     25 C           5.8663   -0.4113    0.6534 C.ar    1  UNL1        0.0000
     26 C           3.1316    0.9762   -1.3603 C.ar    1  UNL1        0.0000
     27 S           3.8667    1.7873   -2.8040 S.2     1  UNL1        0.0000
     28 C           2.2356    1.8001   -3.4495 C.ar    1  UNL1        0.0000
     29 C           1.2452    1.2345   -2.6406 C.ar    1  UNL1        0.0000
     30 C           1.7528    0.7500   -1.4043 C.ar    1  UNL1        0.0000
     31 H          -1.8737    1.5723   -1.3333 H       1  UNL1        0.0000
     32 H          -1.4493    1.9612    1.1292 H       1  UNL1        0.0000
     33 H           0.0583   -2.3689    0.2444 H       1  UNL1        0.0000
     34 H          -2.4410   -2.5764    0.7396 H       1  UNL1        0.0000
     35 H          -4.0040   -0.3738    2.8434 H       1  UNL1        0.0000
     36 H          -6.3891   -0.0806    3.2963 H       1  UNL1        0.0000
     37 H          -8.1009    0.1848    1.4757 H       1  UNL1        0.0000
     38 H          -8.3334    0.2595   -1.2515 H       1  UNL1        0.0000
     39 H          -3.9175   -0.3399   -2.1922 H       1  UNL1        0.0000
     40 H           8.3153    1.8374    1.0314 H       1  UNL1        0.0000
     41 H           7.6597   -2.9835    1.6809 H       1  UNL1        0.0000
     42 H           5.0919   -2.5190    0.7757 H       1  UNL1        0.0000
     43 H           2.0985    2.2335   -4.4309 H       1  UNL1        0.0000
     44 H           0.2110    1.1773   -2.9570 H       1  UNL1        0.0000
@<TRIPOS>BOND
     1     1     2    1
     2     2     3    2
     3     3     4    1
     4     4     5    2
     5     5     6    1
     6     6     7   ar
     7     7     8   ar
     8     8     9   ar
     9     9    10   ar
    10    10    11   ar
    11    11    12   ar
    12    12    13   ar
    13    13    14   ar
    14     2    15    1
    15    15    16   ar
    16    16    17   ar
    17    17    18    1
    18    18    19   ar
    19    19    20   ar
    20    20    21   ar
    21    21    22   ar
    22    22    23   ar
    23    23    24   ar
    24    24    25   ar
    25    17    26   ar
    26    26    27   ar
    27    27    28   ar
    28    28    29   ar
    29    29    30   ar
    30     5     1    1
    31    14     6   ar
    32    30    15   ar
    33    14    10   ar
    34    25    18   ar
    35    30    26   ar
    36    25    21   ar
    37     1    31    1
    38     1    32    1
    39     3    33    1
    40     4    34    1
    41     7    35    1
    42     8    36    1
    43     9    37    1
    44    11    38    1
    45    13    39    1
    46    20    40    1
    47    23    41    1
    48    24    42    1
    49    28    43    1
    50    29    44    1
