@<TRIPOS>MOLECULE
*****
 37 39 0 0 0
SMALL
GASTEIGER

@<TRIPOS>ATOM
      1 C           5.5982   -0.9264   -1.7858 C.2     1  UNL1       -0.1010
      2 C           4.3587   -1.0798   -1.3009 C.2     1  UNL1       -0.0715
      3 C           4.0143   -1.1784    0.1575 C.3     1  UNL1        0.0454
      4 N           3.2347   -0.0149    0.5347 N.ar    1  UNL1       -0.2949
      5 C           3.8854    1.1387    0.9311 C.ar    1  UNL1        0.1001
      6 N           3.3155    2.2418    1.2943 N.ar    1  UNL1       -0.2298
      7 C           1.9600    2.2063    1.2536 C.ar    1  UNL1        0.1156
      8 S           1.0340    3.5701    1.6892 S.2     1  UNL1       -0.0763
      9 C          -0.4315    2.7499    1.3743 C.ar    1  UNL1       -0.0138
     10 C          -0.2310    1.4520    0.9401 C.ar    1  UNL1        0.0036
     11 C          -1.3728    0.6020    0.6311 C.ar    1  UNL1       -0.0163
     12 C          -1.6038   -0.5624    1.3642 C.ar    1  UNL1       -0.0537
     13 C          -2.7092   -1.3653    1.0762 C.ar    1  UNL1       -0.0580
     14 C          -3.6045   -1.0183    0.0529 C.ar    1  UNL1       -0.0475
     15 C          -4.7805   -1.9125   -0.2300 C.3     1  UNL1       -0.0395
     16 C          -3.3774    0.1557   -0.6926 C.ar    1  UNL1       -0.0470
     17 C          -4.3012    0.5692   -1.8053 C.3     1  UNL1       -0.0394
     18 C          -2.2605    0.9550   -0.3935 C.ar    1  UNL1       -0.0508
     19 C           1.1694    1.1395    0.8763 C.ar    1  UNL1        0.0798
     20 C           1.8423   -0.0862    0.4733 C.ar    1  UNL1        0.2630
     21 O           1.2393   -1.0936    0.1135 O.2     1  UNL1       -0.2669
     22 H           6.4669   -0.8517   -1.1389 H       1  UNL1        0.0532
     23 H           5.7691   -0.8728   -2.8576 H       1  UNL1        0.0532
     24 H           3.5263   -1.1608   -1.9990 H       1  UNL1        0.0584
     25 H           3.4498   -2.0990    0.3397 H       1  UNL1        0.0537
     26 H           4.9210   -1.2164    0.7728 H       1  UNL1        0.0537
     27 H           4.9854    1.0684    0.9238 H       1  UNL1        0.1030
     28 H          -1.3724    3.2612    1.5299 H       1  UNL1        0.0700
     29 H          -0.9256   -0.8590    2.1601 H       1  UNL1        0.0624
     30 H          -2.8629   -2.2717    1.6579 H       1  UNL1        0.0620
     31 H          -5.7174   -1.3613   -0.1017 H       1  UNL1        0.0278
     32 H          -4.8076   -2.7693    0.4516 H       1  UNL1        0.0278
     33 H          -4.7230   -2.3044   -1.2504 H       1  UNL1        0.0278
     34 H          -5.3128    0.7303   -1.4196 H       1  UNL1        0.0278
     35 H          -3.9749    1.5041   -2.2731 H       1  UNL1        0.0278
     36 H          -4.3246   -0.1985   -2.5851 H       1  UNL1        0.0278
     37 H          -2.0769    1.8584   -0.9722 H       1  UNL1        0.0626
@<TRIPOS>BOND
     1     1     2    2
     2     2     3    1
     3     3     4    1
     4     4     5   ar
     5     5     6   ar
     6     6     7   ar
     7     7     8   ar
     8     8     9   ar
     9     9    10   ar
    10    10    11    1
    11    11    12   ar
    12    12    13   ar
    13    13    14   ar
    14    14    15    1
    15    14    16   ar
    16    16    17    1
    17    16    18   ar
    18    10    19   ar
    19    19    20   ar
    20    20    21    2
    21    20     4   ar
    22    19     7   ar
    23    18    11   ar
    24     1    22    1
    25     1    23    1
    26     2    24    1
    27     3    25    1
    28     3    26    1
    29     5    27    1
    30     9    28    1
    31    12    29    1
    32    13    30    1
    33    15    31    1
    34    15    32    1
    35    15    33    1
    36    17    34    1
    37    17    35    1
    38    17    36    1
    39    18    37    1
