@<TRIPOS>MOLECULE
*****
 25 25 0 0 0
SMALL
GASTEIGER

@<TRIPOS>ATOM
      1 C           4.2650   -1.6372    0.1843 C.2     1  UNL1       -0.1012
      2 C           3.4721   -0.7720    0.8307 C.2     1  UNL1       -0.0742
      3 C           2.1005   -1.0946    1.3293 C.3     1  UNL1        0.0300
      4 N           1.1493   -0.4304    0.4737 N.am    1  UNL1       -0.3076
      5 C          -0.1967   -0.6478    0.6470 C.2     1  UNL1        0.2509
      6 O          -0.6836   -1.4467    1.4341 O.2     1  UNL1       -0.2700
      7 C          -1.0916    0.1558   -0.2074 C.ar    1  UNL1        0.1149
      8 C          -0.8568    0.2051   -1.5887 C.ar    1  UNL1       -0.0247
      9 C          -1.7485    0.8899   -2.4166 C.ar    1  UNL1        0.0421
     10 CL         -1.4590    0.9488   -4.1109 Cl      1  UNL1       -0.0835
     11 C          -2.8773    1.5205   -1.8870 C.ar    1  UNL1       -0.0369
     12 C          -3.1201    1.4749   -0.5125 C.ar    1  UNL1        0.0178
     13 C          -2.2204    0.7910    0.3170 C.ar    1  UNL1        0.2853
     14 N          -2.4449    0.8372    1.7496 N.pl3   1  UNL1        0.0804
     15 O          -3.5541    0.4679    2.1570 O.2     1  UNL1        0.0415
     16 O          -1.5437    1.3319    2.4405 O.co2   1  UNL1       -0.5760
     17 H           5.2608   -1.3478   -0.1374 H       1  UNL1        0.0532
     18 H           3.9411   -2.6501   -0.0370 H       1  UNL1        0.0532
     19 H           3.8470    0.2267    1.0431 H       1  UNL1        0.0582
     20 H           1.8962   -2.1710    1.3224 H       1  UNL1        0.0506
     21 H           1.9693   -0.7306    2.3537 H       1  UNL1        0.0506
     22 H           1.4632    0.3691   -0.0599 H       1  UNL1        0.1493
     23 H          -0.0037   -0.3130   -2.0218 H       1  UNL1        0.0642
     24 H          -3.5694    2.0484   -2.5402 H       1  UNL1        0.0634
     25 H          -3.9946    1.9740   -0.0988 H       1  UNL1        0.0686
@<TRIPOS>UNITY_ATOM_ATTR
14 1
charge 1
16 1
charge -1
@<TRIPOS>BOND
     1     1     2    2
     2     2     3    1
     3     3     4    1
     4     4     5   am
     5     5     6    2
     6     5     7    1
     7     7     8   ar
     8     8     9   ar
     9     9    10    1
    10     9    11   ar
    11    11    12   ar
    12    12    13   ar
    13    13    14    1
    14    14    15    2
    15    14    16    1
    16    13     7   ar
    17     1    17    1
    18     1    18    1
    19     2    19    1
    20     3    20    1
    21     3    21    1
    22     4    22    1
    23     8    23    1
    24    11    24    1
    25    12    25    1
