@<TRIPOS>MOLECULE
*****
 30 31 0 0 0
SMALL
GASTEIGER

@<TRIPOS>ATOM
      1 C           3.3055    2.2205    3.7167 C.2     1  UNL1       -0.1012
      2 C           3.3368    1.3724    2.6798 C.2     1  UNL1       -0.0742
      3 C           2.1358    0.6987    2.0883 C.3     1  UNL1        0.0277
      4 N           1.9460    1.2564    0.7616 N.pl3   1  UNL1       -0.3339
      5 C           0.9795    0.8037   -0.0948 C.ar    1  UNL1        0.0858
      6 S           0.1977   -0.7185    0.0764 S.2     1  UNL1       -0.0677
      7 C          -0.7761   -0.5043   -1.3115 C.ar    1  UNL1        0.0785
      8 C          -1.7268   -1.5157   -1.7573 C.2     1  UNL1        0.1746
      9 O          -2.3514   -1.4516   -2.8136 O.2     1  UNL1       -0.2911
     10 C          -1.9351   -2.7033   -0.8718 C.3     1  UNL1        0.0228
     11 C          -2.7966   -2.5971    0.3679 C.3     1  UNL1       -0.0425
     12 C          -3.2930   -3.3724   -0.8134 C.3     1  UNL1       -0.0425
     13 C          -0.5061    0.7112   -1.9125 C.ar    1  UNL1        0.0618
     14 N          -1.1401    1.1354   -3.0307 N.pl3   1  UNL1       -0.3560
     15 C           0.4990    1.4560   -1.2210 C.ar    1  UNL1        0.1011
     16 C           0.9731    2.7459   -1.6268 C.1     1  UNL1        0.1034
     17 N           1.3567    3.7932   -1.9510 N.1     1  UNL1       -0.1907
     18 H           2.3755    2.4913    4.2075 H       1  UNL1        0.0532
     19 H           4.2201    2.6679    4.0948 H       1  UNL1        0.0532
     20 H           4.2948    1.1308    2.2238 H       1  UNL1        0.0582
     21 H           2.3309   -0.3788    2.0496 H       1  UNL1        0.0505
     22 H           1.2453    0.8702    2.7044 H       1  UNL1        0.0505
     23 H           2.2258    2.2356    0.7029 H       1  UNL1        0.1469
     24 H          -1.0871   -3.3816   -0.8429 H       1  UNL1        0.0381
     25 H          -3.2806   -1.6516    0.5875 H       1  UNL1        0.0272
     26 H          -2.4878   -3.1507    1.2473 H       1  UNL1        0.0272
     27 H          -4.1025   -2.9492   -1.3991 H       1  UNL1        0.0272
     28 H          -3.3207   -4.4537   -0.7425 H       1  UNL1        0.0272
     29 H          -1.7680    0.5064   -3.5414 H       1  UNL1        0.1424
     30 H          -0.8502    1.9423   -3.5782 H       1  UNL1        0.1424
@<TRIPOS>BOND
     1     1     2    2
     2     2     3    1
     3     3     4    1
     4     4     5    1
     5     5     6   ar
     6     6     7   ar
     7     7     8    1
     8     8     9    2
     9     8    10    1
    10    10    11    1
    11    11    12    1
    12     7    13   ar
    13    13    14    1
    14    13    15   ar
    15    15    16    1
    16    16    17    3
    17    15     5   ar
    18    12    10    1
    19     1    18    1
    20     1    19    1
    21     2    20    1
    22     3    21    1
    23     3    22    1
    24     4    23    1
    25    10    24    1
    26    11    25    1
    27    11    26    1
    28    12    27    1
    29    12    28    1
    30    14    29    1
    31    14    30    1
