@<TRIPOS>MOLECULE
*****
 30 31 0 0 0
SMALL
GASTEIGER

@<TRIPOS>ATOM
      1 C          -4.2586    3.0593   -1.4558 C.2     1  UNL1       -0.1012
      2 C          -3.2477    3.3384   -0.6217 C.2     1  UNL1       -0.0742
      3 C          -2.6157    2.3542    0.3163 C.3     1  UNL1        0.0277
      4 N          -1.2740    2.1006   -0.1726 N.pl3   1  UNL1       -0.3339
      5 C          -0.4563    1.1467    0.3609 C.ar    1  UNL1        0.0858
      6 S           0.7820    0.5236   -0.6610 S.2     1  UNL1       -0.0674
      7 C           1.3369   -0.5831    0.5181 C.ar    1  UNL1        0.0836
      8 C           2.4676   -1.4659    0.2556 C.2     1  UNL1        0.2080
      9 O           3.3712   -1.6078    1.0803 O.2     1  UNL1       -0.2855
     10 C           2.4893   -2.1844   -1.0164 C.ar    1  UNL1        0.0600
     11 C           3.6153   -2.5264   -1.7460 C.ar    1  UNL1       -0.0438
     12 C           3.3052   -3.2706   -2.9205 C.ar    1  UNL1       -0.0540
     13 C           1.9546   -3.5076   -3.0353 C.ar    1  UNL1       -0.0236
     14 S           1.0749   -2.8502   -1.7257 S.2     1  UNL1       -0.0934
     15 C           0.6635   -0.4117    1.7110 C.ar    1  UNL1        0.0622
     16 N           0.9629   -1.1135    2.8341 N.pl3   1  UNL1       -0.3560
     17 C          -0.3833    0.5638    1.6173 C.ar    1  UNL1        0.1011
     18 C          -1.2414    0.9030    2.7123 C.1     1  UNL1        0.1034
     19 N          -1.9343    1.1628    3.6077 N.1     1  UNL1       -0.1907
     20 H          -4.6734    3.8277   -2.1014 H       1  UNL1        0.0532
     21 H          -4.6940    2.0663   -1.5149 H       1  UNL1        0.0532
     22 H          -2.8502    4.3508   -0.5930 H       1  UNL1        0.0582
     23 H          -2.5944    2.8025    1.3143 H       1  UNL1        0.0505
     24 H          -3.1952    1.4246    0.3579 H       1  UNL1        0.0505
     25 H          -1.1914    2.2240   -1.1811 H       1  UNL1        0.1469
     26 H           4.6191   -2.2448   -1.4468 H       1  UNL1        0.0630
     27 H           4.0368   -3.6233   -3.6377 H       1  UNL1        0.0623
     28 H           1.4414   -4.0503   -3.8178 H       1  UNL1        0.0693
     29 H           1.8727   -1.5769    2.9111 H       1  UNL1        0.1424
     30 H           0.6165   -0.8316    3.7502 H       1  UNL1        0.1424
@<TRIPOS>BOND
     1     1     2    2
     2     2     3    1
     3     3     4    1
     4     4     5    1
     5     5     6   ar
     6     6     7   ar
     7     7     8    1
     8     8     9    2
     9     8    10    1
    10    10    11   ar
    11    11    12   ar
    12    12    13   ar
    13    13    14   ar
    14     7    15   ar
    15    15    16    1
    16    15    17   ar
    17    17    18    1
    18    18    19    3
    19    17     5   ar
    20    14    10   ar
    21     1    20    1
    22     1    21    1
    23     2    22    1
    24     3    23    1
    25     3    24    1
    26     4    25    1
    27    11    26    1
    28    12    27    1
    29    13    28    1
    30    16    29    1
    31    16    30    1
