@<TRIPOS>MOLECULE
*****
 30 31 0 0 0
SMALL
GASTEIGER

@<TRIPOS>ATOM
      1 C          -3.1499    0.3033    0.0369 C.ar    1  UNL1       -0.0250
      2 C          -1.7087    0.6131    0.1178 C.2     1  UNL1       -0.0546
      3 C          -0.6951   -0.1976   -0.2280 C.2     1  UNL1       -0.0612
      4 C           0.6951    0.1976   -0.1121 C.2     1  UNL1       -0.0612
      5 C           1.7087   -0.6131   -0.4579 C.2     1  UNL1       -0.0546
      6 C           3.1499   -0.3033   -0.3769 C.ar    1  UNL1       -0.0250
      7 C           3.6598    0.9172    0.0871 C.ar    1  UNL1       -0.0546
      8 C           5.0391    1.1466    0.1384 C.ar    1  UNL1       -0.0612
      9 C           5.9295    0.1591   -0.2735 C.ar    1  UNL1       -0.0617
     10 C           5.4421   -1.0588   -0.7372 C.ar    1  UNL1       -0.0612
     11 C           4.0637   -1.2870   -0.7881 C.ar    1  UNL1       -0.0546
     12 C          -4.0637    1.2869    0.4482 C.ar    1  UNL1       -0.0546
     13 C          -5.4421    1.0588    0.3974 C.ar    1  UNL1       -0.0612
     14 C          -5.9295   -0.1591   -0.0665 C.ar    1  UNL1       -0.0617
     15 C          -5.0391   -1.1465   -0.4787 C.ar    1  UNL1       -0.0612
     16 C          -3.6598   -0.9171   -0.4275 C.ar    1  UNL1       -0.0546
     17 H          -1.4762    1.6056    0.5000 H       1  UNL1        0.0623
     18 H          -0.8817   -1.1953   -0.6134 H       1  UNL1        0.0618
     19 H           0.8817    1.1952    0.2734 H       1  UNL1        0.0618
     20 H           1.4762   -1.6057   -0.8402 H       1  UNL1        0.0623
     21 H           3.0009    1.7140    0.4179 H       1  UNL1        0.0623
     22 H           5.4154    2.0996    0.5014 H       1  UNL1        0.0618
     23 H           7.0005    0.3388   -0.2331 H       1  UNL1        0.0618
     24 H           6.1322   -1.8338   -1.0603 H       1  UNL1        0.0618
     25 H           3.7120   -2.2489   -1.1552 H       1  UNL1        0.0623
     26 H          -3.7120    2.2487    0.8155 H       1  UNL1        0.0623
     27 H          -6.1322    1.8337    0.7206 H       1  UNL1        0.0618
     28 H          -7.0005   -0.3388   -0.1069 H       1  UNL1        0.0618
     29 H          -5.4154   -2.0994   -0.8419 H       1  UNL1        0.0618
     30 H          -3.0010   -1.7139   -0.7584 H       1  UNL1        0.0623
@<TRIPOS>BOND
     1     1     2    1
     2     2     3    2
     3     3     4    1
     4     4     5    2
     5     5     6    1
     6     6     7   ar
     7     7     8   ar
     8     8     9   ar
     9     9    10   ar
    10    10    11   ar
    11     1    12   ar
    12    12    13   ar
    13    13    14   ar
    14    14    15   ar
    15    15    16   ar
    16    16     1   ar
    17    11     6   ar
    18     2    17    1
    19     3    18    1
    20     4    19    1
    21     5    20    1
    22     7    21    1
    23     8    22    1
    24     9    23    1
    25    10    24    1
    26    11    25    1
    27    12    26    1
    28    13    27    1
    29    14    28    1
    30    15    29    1
    31    16    30    1
