@<TRIPOS>MOLECULE
*****
 26 27 0 0 0
SMALL
GASTEIGER

@<TRIPOS>ATOM
      1 C           3.2280   -0.4652   -0.9660 C.ar    1  UNL1        0.0259
      2 C           1.8703   -0.2714   -0.5597 C.1     1  UNL1       -0.0525
      3 C           0.7306   -0.1086   -0.2187 C.1     1  UNL1       -0.0092
      4 C          -0.7306    0.1000    0.2186 C.1     1  UNL1       -0.0092
      5 C          -1.8703    0.2627    0.5597 C.1     1  UNL1       -0.0525
      6 C          -3.2280    0.4566    0.9660 C.ar    1  UNL1        0.0259
      7 C          -4.1707    0.9341    0.0523 C.ar    1  UNL1       -0.0463
      8 C          -5.4959    1.1230    0.4497 C.ar    1  UNL1       -0.0606
      9 C          -5.8795    0.8352    1.7595 C.ar    1  UNL1       -0.0617
     10 C          -4.9397    0.3583    2.6733 C.ar    1  UNL1       -0.0606
     11 C          -3.6141    0.1688    2.2774 C.ar    1  UNL1       -0.0463
     12 C           4.1519    0.5750   -0.8393 C.ar    1  UNL1       -0.0463
     13 C           5.4771    0.3850   -1.2362 C.ar    1  UNL1       -0.0606
     14 C           5.8795   -0.8438   -1.7595 C.ar    1  UNL1       -0.0617
     15 C           4.9585   -1.8836   -1.8868 C.ar    1  UNL1       -0.0606
     16 C           3.6329   -1.6951   -1.4903 C.ar    1  UNL1       -0.0463
     17 H          -3.8805    1.1611   -0.9707 H       1  UNL1        0.0630
     18 H          -6.2283    1.4946   -0.2623 H       1  UNL1        0.0618
     19 H          -6.9114    0.9825    2.0683 H       1  UNL1        0.0618
     20 H          -5.2387    0.1340    3.6939 H       1  UNL1        0.0618
     21 H          -2.8881   -0.2033    2.9963 H       1  UNL1        0.0630
     22 H           3.8469    1.5361   -0.4325 H       1  UNL1        0.0630
     23 H           6.1948    1.1952   -1.1370 H       1  UNL1        0.0618
     24 H           6.9114   -0.9911   -2.0683 H       1  UNL1        0.0618
     25 H           5.2722   -2.8410   -2.2946 H       1  UNL1        0.0618
     26 H           2.9217   -2.5111   -1.5931 H       1  UNL1        0.0630
@<TRIPOS>BOND
     1     1     2    1
     2     2     3    3
     3     3     4    1
     4     4     5    3
     5     5     6    1
     6     6     7   ar
     7     7     8   ar
     8     8     9   ar
     9     9    10   ar
    10    10    11   ar
    11     1    12   ar
    12    12    13   ar
    13    13    14   ar
    14    14    15   ar
    15    15    16   ar
    16    16     1   ar
    17    11     6   ar
    18     7    17    1
    19     8    18    1
    20     9    19    1
    21    10    20    1
    22    11    21    1
    23    12    22    1
    24    13    23    1
    25    14    24    1
    26    15    25    1
    27    16    26    1
