@<TRIPOS>MOLECULE
*****
 24 25 0 0 0
SMALL
GASTEIGER

@<TRIPOS>ATOM
      1 C           2.0081    0.2669   -0.2429 C.ar    1  UNL1        0.0253
      2 C           0.5940    0.0789   -0.1414 C.1     1  UNL1       -0.0610
      3 C          -0.5940   -0.0790   -0.0562 C.1     1  UNL1       -0.0610
      4 C          -2.0081   -0.2669    0.0453 C.ar    1  UNL1        0.0253
      5 C          -2.7742   -0.4508   -1.1082 C.ar    1  UNL1       -0.0463
      6 C          -4.1548   -0.6343   -1.0084 C.ar    1  UNL1       -0.0606
      7 C          -4.7701   -0.6340    0.2435 C.ar    1  UNL1       -0.0617
      8 C          -4.0067   -0.4506    1.3964 C.ar    1  UNL1       -0.0606
      9 C          -2.6259   -0.2670    1.2981 C.ar    1  UNL1       -0.0463
     10 C           2.8647   -0.8360   -0.2114 C.ar    1  UNL1       -0.0463
     11 C           4.2453   -0.6518   -0.3105 C.ar    1  UNL1       -0.0606
     12 C           4.7701    0.6340   -0.4410 C.ar    1  UNL1       -0.0617
     13 C           3.9162    1.7366   -0.4726 C.ar    1  UNL1       -0.0606
     14 C           2.5354    1.5538   -0.3736 C.ar    1  UNL1       -0.0463
     15 H          -2.3019   -0.4522   -2.0876 H       1  UNL1        0.0630
     16 H          -4.7496   -0.7772   -1.9069 H       1  UNL1        0.0618
     17 H          -5.8449   -0.7769    0.3206 H       1  UNL1        0.0618
     18 H          -4.4860   -0.4504    2.3719 H       1  UNL1        0.0618
     19 H          -2.0377   -0.1246    2.2013 H       1  UNL1        0.0630
     20 H           2.4633   -1.8414   -0.1099 H       1  UNL1        0.0630
     21 H           4.9105   -1.5110   -0.2858 H       1  UNL1        0.0618
     22 H           5.8449    0.7769   -0.5181 H       1  UNL1        0.0618
     23 H           4.3250    2.7385   -0.5743 H       1  UNL1        0.0618
     24 H           1.8763    2.4182   -0.3990 H       1  UNL1        0.0630
@<TRIPOS>BOND
     1     1     2    1
     2     2     3    3
     3     3     4    1
     4     4     5   ar
     5     5     6   ar
     6     6     7   ar
     7     7     8   ar
     8     8     9   ar
     9     1    10   ar
    10    10    11   ar
    11    11    12   ar
    12    12    13   ar
    13    13    14   ar
    14    14     1   ar
    15     9     4   ar
    16     5    15    1
    17     6    16    1
    18     7    17    1
    19     8    18    1
    20     9    19    1
    21    10    20    1
    22    11    21    1
    23    12    22    1
    24    13    23    1
    25    14    24    1
