@<TRIPOS>MOLECULE
*****
 34 37 0 0 0
SMALL
GASTEIGER

@<TRIPOS>ATOM
      1 C          -2.2536   -0.1810   -0.2374 C.ar    1  UNL1        0.0000
      2 C          -1.4972    1.0432    0.0915 C.ar    1  UNL1        0.0000
      3 C          -2.1650    2.1296    0.5879 C.ar    1  UNL1        0.0000
      4 C          -1.4197    3.2686    0.8875 C.ar    1  UNL1        0.0000
      5 C          -0.0560    3.3134    0.6953 C.ar    1  UNL1        0.0000
      6 C           0.6356    2.2276    0.1954 C.ar    1  UNL1        0.0000
      7 C          -0.1251    1.1004   -0.0975 C.ar    1  UNL1        0.0000
      8 B           0.6653   -0.1353   -0.6669 B       1  UNL1        0.0000
      9 C           2.1659   -0.3766   -0.2048 C.ar    1  UNL1        0.0000
     10 C           3.2053    0.2069   -0.8685 C.ar    1  UNL1        0.0000
     11 C           4.4935   -0.0168   -0.4501 C.ar    1  UNL1        0.0000
     12 C           4.7893   -0.8307    0.6452 C.ar    1  UNL1        0.0000
     13 C           3.7130   -1.4116    1.3019 C.ar    1  UNL1        0.0000
     14 C           2.4284   -1.1831    0.8776 C.ar    1  UNL1        0.0000
     15 N          -0.1894   -1.3465   -0.9760 N.ar    1  UNL1        0.0000
     16 C          -1.6119   -1.2883   -0.7374 C.ar    1  UNL1        0.0000
     17 C          -2.3576   -2.4163   -1.0329 C.ar    1  UNL1        0.0000
     18 C          -3.7204   -2.4444   -0.8348 C.ar    1  UNL1        0.0000
     19 C          -4.3488   -1.3327   -0.3352 C.ar    1  UNL1        0.0000
     20 C          -3.6256   -0.2011   -0.0350 C.ar    1  UNL1        0.0000
     21 H          -3.2131    2.2076    0.7765 H       1  UNL1        0.0000
     22 H          -1.8842    4.1655    1.2841 H       1  UNL1        0.0000
     23 H           0.5247    4.2116    0.9326 H       1  UNL1        0.0000
     24 H           1.7023    2.2308    0.0335 H       1  UNL1        0.0000
     25 H           2.9738    0.8448   -1.7268 H       1  UNL1        0.0000
     26 H           5.3408    0.4405   -0.9671 H       1  UNL1        0.0000
     27 H           5.7715   -1.0245    0.9947 H       1  UNL1        0.0000
     28 H           3.9229   -2.0518    2.1612 H       1  UNL1        0.0000
     29 H           1.5854   -1.6296    1.3807 H       1  UNL1        0.0000
     30 H           0.2643   -2.2101   -1.3589 H       1  UNL1        0.0000
     31 H          -1.8172   -3.2704   -1.4256 H       1  UNL1        0.0000
     32 H          -4.3028   -3.3265   -1.0661 H       1  UNL1        0.0000
     33 H          -5.4014   -1.3545   -0.1822 H       1  UNL1        0.0000
     34 H          -4.1929    0.6411    0.3575 H       1  UNL1        0.0000
@<TRIPOS>BOND
     1     1     2   ar
     2     2     3   ar
     3     3     4   ar
     4     4     5   ar
     5     5     6   ar
     6     2     7   ar
     7     7     8   ar
     8     8     9    1
     9     9    10   ar
    10    10    11   ar
    11    11    12   ar
    12    12    13   ar
    13    13    14   ar
    14     8    15   ar
    15     1    16   ar
    16    16    17   ar
    17    17    18   ar
    18    18    19   ar
    19    19    20   ar
    20    20     1   ar
    21     7     6   ar
    22    14     9   ar
    23    16    15   ar
    24     3    21    1
    25     4    22    1
    26     5    23    1
    27     6    24    1
    28    10    25    1
    29    11    26    1
    30    12    27    1
    31    13    28    1
    32    14    29    1
    33    15    30    1
    34    17    31    1
    35    18    32    1
    36    19    33    1
    37    20    34    1
