@<TRIPOS>MOLECULE
*****
 24 26 0 0 0
SMALL
GASTEIGER

@<TRIPOS>ATOM
      1 C          -0.6848    0.3885   -0.1689 C.ar    1  UNL1       -0.0102
      2 C           0.7497    0.2837   -0.0763 C.ar    1  UNL1       -0.0102
      3 C           1.6498    1.3227   -0.4252 C.ar    1  UNL1       -0.0534
      4 C           3.0364    1.1766   -0.3191 C.ar    1  UNL1       -0.0611
      5 C           3.5726   -0.0162    0.1405 C.ar    1  UNL1       -0.0612
      6 C           2.7218   -1.0602    0.4931 C.ar    1  UNL1       -0.0540
      7 C           1.3264   -0.9255    0.3909 C.ar    1  UNL1       -0.0173
      8 C           0.5049   -1.9956    0.7542 C.ar    1  UNL1       -0.0534
      9 C          -0.8806   -1.8944    0.6648 C.ar    1  UNL1       -0.0534
     10 C          -1.4854   -0.7202    0.2094 C.ar    1  UNL1       -0.0173
     11 C          -2.8870   -0.6505    0.1310 C.ar    1  UNL1       -0.0540
     12 C          -3.5257    0.5022   -0.3178 C.ar    1  UNL1       -0.0612
     13 C          -2.7682    1.6005   -0.6939 C.ar    1  UNL1       -0.0611
     14 C          -1.3730    1.5434   -0.6203 C.ar    1  UNL1       -0.0534
     15 H           1.2824    2.2772   -0.7907 H       1  UNL1        0.0624
     16 H           3.6912    1.9983   -0.5972 H       1  UNL1        0.0618
     17 H           4.6490   -0.1366    0.2254 H       1  UNL1        0.0618
     18 H           3.1600   -1.9893    0.8519 H       1  UNL1        0.0624
     19 H           0.9367   -2.9272    1.1137 H       1  UNL1        0.0624
     20 H          -1.4850   -2.7504    0.9574 H       1  UNL1        0.0624
     21 H          -3.4973   -1.5032    0.4221 H       1  UNL1        0.0624
     22 H          -4.6101    0.5396   -0.3724 H       1  UNL1        0.0618
     23 H          -3.2562    2.5056   -1.0457 H       1  UNL1        0.0618
     24 H          -0.8276    2.4312   -0.9269 H       1  UNL1        0.0624
@<TRIPOS>BOND
     1     1     2   ar
     2     2     3   ar
     3     3     4   ar
     4     4     5   ar
     5     5     6   ar
     6     2     7   ar
     7     7     8   ar
     8     8     9   ar
     9     1    10   ar
    10    10    11   ar
    11    11    12   ar
    12    12    13   ar
    13    13    14   ar
    14    14     1   ar
    15     7     6   ar
    16    10     9   ar
    17     3    15    1
    18     4    16    1
    19     5    17    1
    20     6    18    1
    21     8    19    1
    22     9    20    1
    23    11    21    1
    24    12    22    1
    25    13    23    1
    26    14    24    1
