@<TRIPOS>MOLECULE
*****
 34 37 0 0 0
SMALL
GASTEIGER

@<TRIPOS>ATOM
      1 C           1.2217   -1.7905    0.3367 C.ar    1  UNL1        0.0000
      2 C           0.0757   -2.6672    0.5731 C.ar    1  UNL1        0.0000
      3 C          -1.1715   -2.2515    0.4517 C.ar    1  UNL1        0.0000
      4 B          -1.4111   -0.7763    0.0428 B       1  UNL1        0.0000
      5 C          -2.8082   -0.0899    0.0835 C.ar    1  UNL1        0.0000
      6 C          -3.9719   -0.8151   -0.0761 C.ar    1  UNL1        0.0000
      7 C          -5.1972   -0.1815   -0.0358 C.ar    1  UNL1        0.0000
      8 C          -5.2697    1.1803    0.1642 C.ar    1  UNL1        0.0000
      9 C          -4.1237    1.9311    0.3269 C.ar    1  UNL1        0.0000
     10 C          -2.9120    1.2772    0.2828 C.ar    1  UNL1        0.0000
     11 N          -0.1805    0.1016   -0.1935 N.ar    1  UNL1        0.0000
     12 C           1.1103   -0.4580   -0.0322 C.ar    1  UNL1        0.0000
     13 C           2.2353    0.3381   -0.2464 C.ar    1  UNL1        0.0000
     14 C           2.1589    1.6565   -0.6112 C.ar    1  UNL1        0.0000
     15 C           3.2979    2.4501   -0.8247 C.ar    1  UNL1        0.0000
     16 C           4.5436    1.9100   -0.6690 C.ar    1  UNL1        0.0000
     17 C           4.6248    0.5869   -0.3029 C.ar    1  UNL1        0.0000
     18 C           3.5069   -0.2012   -0.0908 C.ar    1  UNL1        0.0000
     19 C           3.6107   -1.5228    0.2750 C.ar    1  UNL1        0.0000
     20 C           2.4990   -2.3006    0.4842 C.ar    1  UNL1        0.0000
     21 H           0.2872   -3.6870    0.8560 H       1  UNL1        0.0000
     22 H          -2.0249   -2.8916    0.6243 H       1  UNL1        0.0000
     23 H          -3.9377   -1.8851   -0.2343 H       1  UNL1        0.0000
     24 H          -6.1158   -0.7138   -0.1558 H       1  UNL1        0.0000
     25 H          -6.2154    1.7268    0.2039 H       1  UNL1        0.0000
     26 H          -4.1586    3.0196    0.4877 H       1  UNL1        0.0000
     27 H          -2.0027    1.8854    0.4138 H       1  UNL1        0.0000
     28 H          -0.3333    1.1183   -0.4753 H       1  UNL1        0.0000
     29 H           1.1961    2.1235   -0.7452 H       1  UNL1        0.0000
     30 H           3.1423    3.4802   -1.1102 H       1  UNL1        0.0000
     31 H           5.4248    2.5256   -0.8346 H       1  UNL1        0.0000
     32 H           5.6139    0.1739   -0.1837 H       1  UNL1        0.0000
     33 H           4.6361   -1.9019    0.3850 H       1  UNL1        0.0000
     34 H           2.6490   -3.3509    0.7753 H       1  UNL1        0.0000
@<TRIPOS>BOND
     1     1     2   ar
     2     2     3   ar
     3     3     4   ar
     4     4     5    1
     5     5     6   ar
     6     6     7   ar
     7     7     8   ar
     8     8     9   ar
     9     9    10   ar
    10     4    11   ar
    11     1    12   ar
    12    12    13   ar
    13    13    14   ar
    14    14    15   ar
    15    15    16   ar
    16    16    17   ar
    17    13    18   ar
    18    18    19   ar
    19    19    20   ar
    20    20     1   ar
    21    10     5   ar
    22    12    11   ar
    23    18    17   ar
    24     2    21    1
    25     3    22    1
    26     6    23    1
    27     7    24    1
    28     8    25    1
    29     9    26    1
    30    10    27    1
    31    11    28    1
    32    14    29    1
    33    15    30    1
    34    16    31    1
    35    17    32    1
    36    19    33    1
    37    20    34    1
