@<TRIPOS>MOLECULE
*****
 45 50 0 0 0
SMALL
GASTEIGER

@<TRIPOS>ATOM
      1 SI         -2.0474   -0.1771   -0.9311 Si      1  UNL1        0.0000
      2 C          -0.8786   -0.1580    0.5506 C.2     1  UNL1        0.0000
      3 C          -1.5553   -0.0126    1.7077 C.2     1  UNL1        0.0000
      4 C          -2.9990    0.1139    1.5710 C.2     1  UNL1        0.0000
      5 C          -3.4756    0.0480    0.3089 C.2     1  UNL1        0.0000
      6 C          -4.8632    0.2181   -0.1059 C.ar    1  UNL1        0.0000
      7 C          -5.6511    1.3078    0.3317 C.ar    1  UNL1        0.0000
      8 C          -6.9958    1.5125   -0.0594 C.ar    1  UNL1        0.0000
      9 C          -7.6812    0.6455   -0.9234 C.ar    1  UNL1        0.0000
     10 C          -6.9536   -0.4740   -1.3908 C.ar    1  UNL1        0.0000
     11 N          -7.4269   -1.4155   -2.2200 N.ar    1  UNL1        0.0000
     12 S          -6.1973   -2.5082   -2.4404 S.2     1  UNL1        0.0000
     13 N          -5.0061   -1.8300   -1.5109 N.ar    1  UNL1        0.0000
     14 C          -5.5149   -0.7046   -0.9768 C.ar    1  UNL1        0.0000
     15 C           0.5503   -0.2995    0.3886 C.ar    1  UNL1        0.0000
     16 C           1.2207   -1.5091    0.1015 C.ar    1  UNL1        0.0000
     17 C           2.6475   -1.6165   -0.0554 C.ar    1  UNL1        0.0000
     18 C           3.5673   -0.5319    0.0576 C.ar    1  UNL1        0.0000
     19 C           5.0146   -0.6554   -0.0935 C.ar    1  UNL1        0.0000
     20 C           5.7296   -1.6843    0.5216 C.ar    1  UNL1        0.0000
     21 C           7.1070   -1.7695    0.3291 C.ar    1  UNL1        0.0000
     22 C           7.7394   -0.8311   -0.4748 C.ar    1  UNL1        0.0000
     23 C           6.9638    0.1570   -1.0541 C.ar    1  UNL1        0.0000
     24 N           5.6279    0.2629   -0.8829 N.ar    1  UNL1        0.0000
     25 C           2.8742    0.6540    0.3468 C.ar    1  UNL1        0.0000
     26 C           3.4011    1.9084    0.5457 C.ar    1  UNL1        0.0000
     27 N           2.3546    2.7653    0.7988 N.ar    1  UNL1        0.0000
     28 C           1.1611    2.0789    0.7794 C.ar    1  UNL1        0.0000
     29 C           1.4522    0.7630    0.5072 C.ar    1  UNL1        0.0000
     30 H          -2.0278   -1.4944   -1.6149 H       1  UNL1        0.0000
     31 H          -1.8937    1.0222   -1.7962 H       1  UNL1        0.0000
     32 H          -1.0846    0.0229    2.6829 H       1  UNL1        0.0000
     33 H          -3.6145    0.2624    2.4480 H       1  UNL1        0.0000
     34 H          -5.2022    2.0428    1.0009 H       1  UNL1        0.0000
     35 H          -7.5216    2.3867    0.3256 H       1  UNL1        0.0000
     36 H          -8.7099    0.8158   -1.2172 H       1  UNL1        0.0000
     37 H           0.6320   -2.4202   -0.0111 H       1  UNL1        0.0000
     38 H           3.0406   -2.6051   -0.2963 H       1  UNL1        0.0000
     39 H           5.2267   -2.4075    1.1558 H       1  UNL1        0.0000
     40 H           7.6780   -2.5612    0.8054 H       1  UNL1        0.0000
     41 H           8.8091   -0.8669   -0.6458 H       1  UNL1        0.0000
     42 H           7.4075    0.9158   -1.6925 H       1  UNL1        0.0000
     43 H           4.4183    2.2763    0.5161 H       1  UNL1        0.0000
     44 H           2.4499    3.7584    0.9660 H       1  UNL1        0.0000
     45 H           0.2270    2.5940    0.9585 H       1  UNL1        0.0000
@<TRIPOS>BOND
     1     1     2    1
     2     2     3    2
     3     3     4    1
     4     4     5    2
     5     5     6    1
     6     6     7   ar
     7     7     8   ar
     8     8     9   ar
     9     9    10   ar
    10    10    11   ar
    11    11    12   ar
    12    12    13   ar
    13    13    14   ar
    14     2    15    1
    15    15    16   ar
    16    16    17   ar
    17    17    18   ar
    18    18    19    1
    19    19    20   ar
    20    20    21   ar
    21    21    22   ar
    22    22    23   ar
    23    23    24   ar
    24    18    25   ar
    25    25    26   ar
    26    26    27   ar
    27    27    28   ar
    28    28    29   ar
    29     5     1    1
    30    14     6   ar
    31    29    15   ar
    32    14    10   ar
    33    24    19   ar
    34    29    25   ar
    35     1    30    1
    36     1    31    1
    37     3    32    1
    38     4    33    1
    39     7    34    1
    40     8    35    1
    41     9    36    1
    42    16    37    1
    43    17    38    1
    44    20    39    1
    45    21    40    1
    46    22    41    1
    47    23    42    1
    48    26    43    1
    49    27    44    1
    50    28    45    1
