@<TRIPOS>MOLECULE
*****
 24 26 0 0 0
SMALL
GASTEIGER

@<TRIPOS>ATOM
      1 C           1.4462   -0.8223   -0.0351 C.ar    1  UNL1       -0.0173
      2 C           2.8506   -0.8010   -0.0865 C.ar    1  UNL1       -0.0540
      3 C           3.5502    0.4016   -0.1371 C.ar    1  UNL1       -0.0612
      4 C           2.8515    1.5989   -0.1369 C.ar    1  UNL1       -0.0611
      5 C           1.4541    1.5907   -0.0861 C.ar    1  UNL1       -0.0534
      6 C           0.7050    0.3876   -0.0337 C.ar    1  UNL1       -0.0102
      7 C          -0.7342    0.3301    0.0197 C.ar    1  UNL1       -0.0102
      8 C          -1.5785    1.4696    0.0263 C.ar    1  UNL1       -0.0534
      9 C          -2.9720    1.3663    0.0790 C.ar    1  UNL1       -0.0611
     10 C          -3.5712    0.1173    0.1269 C.ar    1  UNL1       -0.0612
     11 C          -2.7764   -1.0256    0.1221 C.ar    1  UNL1       -0.0540
     12 C          -1.3748   -0.9349    0.0694 C.ar    1  UNL1       -0.0173
     13 C          -0.6105   -2.1045    0.0663 C.ar    1  UNL1       -0.0534
     14 C           0.7794   -2.0490    0.0148 C.ar    1  UNL1       -0.0534
     15 H           3.4152   -1.7312   -0.0874 H       1  UNL1        0.0624
     16 H           4.6359    0.4006   -0.1764 H       1  UNL1        0.0618
     17 H           3.3872    2.5436   -0.1761 H       1  UNL1        0.0618
     18 H           0.9563    2.5560   -0.0883 H       1  UNL1        0.0624
     19 H          -1.1606    2.4714   -0.0099 H       1  UNL1        0.0624
     20 H          -3.5827    2.2653    0.0822 H       1  UNL1        0.0618
     21 H          -4.6534    0.0297    0.1680 H       1  UNL1        0.0618
     22 H          -3.2636   -1.9979    0.1602 H       1  UNL1        0.0624
     23 H          -1.0916   -3.0796    0.1042 H       1  UNL1        0.0624
     24 H           1.3380   -2.9826    0.0142 H       1  UNL1        0.0624
@<TRIPOS>BOND
     1     1     2   ar
     2     2     3   ar
     3     3     4   ar
     4     4     5   ar
     5     1     6   ar
     6     6     7   ar
     7     7     8   ar
     8     8     9   ar
     9     9    10   ar
    10    10    11   ar
    11     7    12   ar
    12    12    13   ar
    13    13    14   ar
    14    14     1   ar
    15     6     5   ar
    16    12    11   ar
    17     2    15    1
    18     3    16    1
    19     4    17    1
    20     5    18    1
    21     8    19    1
    22     9    20    1
    23    10    21    1
    24    11    22    1
    25    13    23    1
    26    14    24    1
