@<TRIPOS>MOLECULE
*****
 24 26 0 0 0
SMALL
GASTEIGER

@<TRIPOS>ATOM
      1 C           1.2408    0.6694   -0.0589 C.ar    1  UNL1        0.0000
      2 C           2.4788    1.2634   -0.1949 C.ar    1  UNL1        0.0000
      3 C           3.6355    0.5230   -0.2406 C.ar    1  UNL1        0.0000
      4 C           3.5630   -0.8499   -0.1486 C.ar    1  UNL1        0.0000
      5 C           2.3405   -1.4734   -0.0120 C.ar    1  UNL1        0.0000
      6 C           1.1907   -0.7009    0.0312 C.ar    1  UNL1        0.0000
      7 C          -0.0334   -1.3113    0.1671 C.ar    1  UNL1        0.0000
      8 C          -1.2292   -0.6047    0.2181 C.ar    1  UNL1        0.0000
      9 C          -2.5003   -1.2977    0.3630 C.ar    1  UNL1        0.0000
     10 C          -3.6690   -0.6968    0.4184 C.ar    1  UNL1        0.0000
     11 B          -3.6819    0.8672    0.3212 B       1  UNL1        0.0000
     12 N          -2.3104    1.5441    0.1693 N.ar    1  UNL1        0.0000
     13 C          -1.1263    0.7691    0.1236 C.ar    1  UNL1        0.0000
     14 C           0.0848    1.4249   -0.0141 C.ar    1  UNL1        0.0000
     15 H           2.5362    2.3436   -0.2673 H       1  UNL1        0.0000
     16 H           4.6094    1.0218   -0.3495 H       1  UNL1        0.0000
     17 H           4.5066   -1.4144   -0.1883 H       1  UNL1        0.0000
     18 H           2.3025   -2.5567    0.0591 H       1  UNL1        0.0000
     19 H          -0.0822   -2.3967    0.2392 H       1  UNL1        0.0000
     20 H          -2.4854   -2.3970    0.4308 H       1  UNL1        0.0000
     21 H          -4.6020   -1.2452    0.5272 H       1  UNL1        0.0000
     22 H          -4.6452    1.4206   -0.0766 H       1  UNL1        0.0000
     23 H          -2.2789    2.5842    0.1015 H       1  UNL1        0.0000
     24 H           0.1554    2.5136   -0.0882 H       1  UNL1        0.0000
@<TRIPOS>BOND
     1     1     2   ar
     2     2     3   ar
     3     3     4   ar
     4     4     5   ar
     5     1     6   ar
     6     6     7   ar
     7     7     8   ar
     8     8     9   ar
     9     9    10   ar
    10    10    11   ar
    11    11    12   ar
    12     8    13   ar
    13    13    14   ar
    14    14     1   ar
    15     6     5   ar
    16    13    12   ar
    17     2    15    1
    18     3    16    1
    19     4    17    1
    20     5    18    1
    21     7    19    1
    22     9    20    1
    23    10    21    1
    24    11    22    1
    25    12    23    1
    26    14    24    1
