@<TRIPOS>MOLECULE
*****
 33 37 0 0 0
SMALL
GASTEIGER

@<TRIPOS>ATOM
      1 C           3.0371    0.2105    0.2071 C.ar    1  UNL1        0.0095
      2 C           4.4041    0.3502    0.3069 C.ar    1  UNL1       -0.0519
      3 C           4.8958    1.6173    0.6445 C.ar    1  UNL1       -0.0611
      4 C           4.0297    2.7113    0.8741 C.ar    1  UNL1       -0.0611
      5 C           2.6410    2.5765    0.7742 C.ar    1  UNL1       -0.0505
      6 C           2.1556    1.3320    0.4426 C.ar    1  UNL1        0.0269
      7 C           0.7944    0.8683    0.2632 C.ar    1  UNL1        0.1470
      8 N          -0.4617    1.2360    0.2859 N.ar    1  UNL1       -0.2266
      9 C          -1.1740    0.0456   -0.0251 C.ar    1  UNL1        0.0971
     10 C          -2.6253    0.0204   -0.1061 C.ar    1  UNL1        0.0024
     11 C          -3.3689   -1.1182    0.2302 C.ar    1  UNL1       -0.0525
     12 C          -4.7642   -1.1067    0.1426 C.ar    1  UNL1       -0.0611
     13 C          -5.4292    0.0447   -0.2751 C.ar    1  UNL1       -0.0617
     14 C          -4.7019    1.1879   -0.5984 C.ar    1  UNL1       -0.0611
     15 C          -3.3078    1.1763   -0.5099 C.ar    1  UNL1       -0.0525
     16 C          -0.3048   -1.0188   -0.2575 C.ar    1  UNL1        0.0745
     17 N           0.8955   -0.4364   -0.0526 N.ar    1  UNL1       -0.2915
     18 C           2.1731   -0.9427   -0.1221 C.ar    1  UNL1        0.0564
     19 C           2.2815   -2.2399   -0.4488 C.ar    1  UNL1       -0.0371
     20 C           1.0192   -2.9722   -0.7075 C.ar    1  UNL1       -0.0578
     21 C          -0.2107   -2.3947   -0.6209 C.ar    1  UNL1       -0.0356
     22 H           5.0768   -0.4816    0.1326 H       1  UNL1        0.0624
     23 H           5.9706    1.7671    0.7331 H       1  UNL1        0.0618
     24 H           4.4543    3.6793    1.1345 H       1  UNL1        0.0618
     25 H           1.9743    3.4136    0.9501 H       1  UNL1        0.0625
     26 H          -2.8770   -2.0186    0.5860 H       1  UNL1        0.0624
     27 H          -5.3316   -1.9945    0.4092 H       1  UNL1        0.0618
     28 H          -6.5140    0.0541   -0.3402 H       1  UNL1        0.0618
     29 H          -5.2159    2.0913   -0.9154 H       1  UNL1        0.0618
     30 H          -2.7496    2.0773   -0.7586 H       1  UNL1        0.0624
     31 H           3.2299   -2.7543   -0.5390 H       1  UNL1        0.0638
     32 H           1.1125   -4.0180   -0.9888 H       1  UNL1        0.0619
     33 H          -1.1091   -2.9633   -0.8362 H       1  UNL1        0.0639
@<TRIPOS>BOND
     1     1     2   ar
     2     2     3   ar
     3     3     4   ar
     4     4     5   ar
     5     1     6   ar
     6     6     7   ar
     7     7     8   ar
     8     8     9   ar
     9     9    10    1
    10    10    11   ar
    11    11    12   ar
    12    12    13   ar
    13    13    14   ar
    14    14    15   ar
    15     9    16   ar
    16    16    17   ar
    17    17    18   ar
    18    18    19   ar
    19    19    20   ar
    20    20    21   ar
    21    18     1   ar
    22     6     5   ar
    23    17     7   ar
    24    15    10   ar
    25    21    16   ar
    26     2    22    1
    27     3    23    1
    28     4    24    1
    29     5    25    1
    30    11    26    1
    31    12    27    1
    32    13    28    1
    33    14    29    1
    34    15    30    1
    35    19    31    1
    36    20    32    1
    37    21    33    1
