@<TRIPOS>MOLECULE
*****
 30 34 0 0 0
SMALL
GASTEIGER

@<TRIPOS>ATOM
      1 C          -2.6578   -0.0965    0.2173 C.ar    1  UNL1        0.0095
      2 C          -4.0324   -0.1587    0.2884 C.ar    1  UNL1       -0.0519
      3 C          -4.7504    0.9295   -0.2233 C.ar    1  UNL1       -0.0611
      4 C          -4.0967    2.0479   -0.7902 C.ar    1  UNL1       -0.0611
      5 C          -2.7016    2.1173   -0.8653 C.ar    1  UNL1       -0.0505
      6 C          -1.9944    1.0487   -0.3630 C.ar    1  UNL1        0.0269
      7 C          -0.5664    0.8143   -0.2904 C.ar    1  UNL1        0.1470
      8 N           0.6046    1.3225   -0.5738 N.ar    1  UNL1       -0.2260
      9 C           1.5238    0.3412   -0.1204 C.ar    1  UNL1        0.1037
     10 C           3.0716    0.5465   -0.2667 C.ar    1  UNL1        0.0396
     11 C           4.0498   -0.3365    0.1369 C.ar    1  UNL1       -0.0454
     12 C           5.3640    0.1491   -0.1397 C.ar    1  UNL1       -0.0541
     13 C           5.3397    1.3854   -0.7444 C.ar    1  UNL1       -0.0237
     14 S           3.7431    1.9522   -0.9748 S.2     1  UNL1       -0.0951
     15 C           0.8682   -0.7548    0.4356 C.ar    1  UNL1        0.0750
     16 N          -0.4248   -0.3894    0.2948 N.ar    1  UNL1       -0.2915
     17 C          -1.5928   -1.0290    0.6425 C.ar    1  UNL1        0.0564
     18 C          -1.4627   -2.2298    1.2266 C.ar    1  UNL1       -0.0371
     19 C          -0.0823   -2.7268    1.4292 C.ar    1  UNL1       -0.0578
     20 C           1.0260   -2.0298    1.0552 C.ar    1  UNL1       -0.0356
     21 H          -4.5436   -1.0110    0.7208 H       1  UNL1        0.0624
     22 H          -5.8384    0.9173   -0.1851 H       1  UNL1        0.0618
     23 H          -4.6932    2.8726   -1.1764 H       1  UNL1        0.0618
     24 H          -2.1972    2.9737   -1.2996 H       1  UNL1        0.0625
     25 H           3.8568   -1.2884    0.6086 H       1  UNL1        0.0629
     26 H           6.2783   -0.3824    0.0936 H       1  UNL1        0.0623
     27 H           6.1800    1.9865   -1.0634 H       1  UNL1        0.0693
     28 H          -2.3042   -2.8315    1.5461 H       1  UNL1        0.0638
     29 H           0.0188   -3.7001    1.9027 H       1  UNL1        0.0619
     30 H           2.0142   -2.4399    1.2268 H       1  UNL1        0.0639
@<TRIPOS>BOND
     1     1     2   ar
     2     2     3   ar
     3     3     4   ar
     4     4     5   ar
     5     1     6   ar
     6     6     7   ar
     7     7     8   ar
     8     8     9   ar
     9     9    10    1
    10    10    11   ar
    11    11    12   ar
    12    12    13   ar
    13    13    14   ar
    14     9    15   ar
    15    15    16   ar
    16    16    17   ar
    17    17    18   ar
    18    18    19   ar
    19    19    20   ar
    20    17     1   ar
    21     6     5   ar
    22    16     7   ar
    23    14    10   ar
    24    20    15   ar
    25     2    21    1
    26     3    22    1
    27     4    23    1
    28     5    24    1
    29    11    25    1
    30    12    26    1
    31    13    27    1
    32    18    28    1
    33    19    29    1
    34    20    30    1
