@<TRIPOS>MOLECULE
*****
 34 35 0 0 0
SMALL
GASTEIGER

@<TRIPOS>ATOM
      1 C          -3.8711   -0.7527   -0.2941 C.ar    1  UNL1       -0.0250
      2 C          -2.4975   -1.2611   -0.4170 C.2     1  UNL1       -0.0546
      3 C          -1.4023   -0.5067   -0.2309 C.2     1  UNL1       -0.0612
      4 C          -0.0615   -1.0385   -0.3536 C.2     1  UNL1       -0.0617
      5 C           1.0987   -0.3823   -0.1867 C.2     1  UNL1       -0.0617
      6 C           1.2800    1.0157    0.1477 C.2     1  UNL1       -0.0612
      7 C           2.4558    1.6377    0.3369 C.2     1  UNL1       -0.0546
      8 C           3.7818    1.0193    0.2655 C.ar    1  UNL1       -0.0250
      9 C           4.2454    0.2044    1.3043 C.ar    1  UNL1       -0.0546
     10 C           5.5120   -0.3780    1.2287 C.ar    1  UNL1       -0.0612
     11 C           6.3205   -0.1472    0.1163 C.ar    1  UNL1       -0.0617
     12 C           5.8643    0.6657   -0.9209 C.ar    1  UNL1       -0.0612
     13 C           4.5978    1.2491   -0.8467 C.ar    1  UNL1       -0.0546
     14 C          -4.8462   -1.5681    0.2946 C.ar    1  UNL1       -0.0546
     15 C          -6.1685   -1.1302    0.4038 C.ar    1  UNL1       -0.0612
     16 C          -6.5310    0.1229   -0.0855 C.ar    1  UNL1       -0.0617
     17 C          -5.5736    0.9363   -0.6880 C.ar    1  UNL1       -0.0612
     18 C          -4.2510    0.4989   -0.7965 C.ar    1  UNL1       -0.0546
     19 H          -2.4096   -2.3186   -0.6543 H       1  UNL1        0.0623
     20 H          -1.5118    0.5401    0.0349 H       1  UNL1        0.0618
     21 H           0.0065   -2.0958   -0.6105 H       1  UNL1        0.0618
     22 H           2.0102   -0.9636   -0.3252 H       1  UNL1        0.0618
     23 H           0.3847    1.6244    0.2429 H       1  UNL1        0.0618
     24 H           2.4639    2.7017    0.5633 H       1  UNL1        0.0623
     25 H           3.6217    0.0188    2.1757 H       1  UNL1        0.0623
     26 H           5.8670   -1.0109    2.0377 H       1  UNL1        0.0618
     27 H           7.3065   -0.6009    0.0576 H       1  UNL1        0.0618
     28 H           6.4938    0.8450   -1.7884 H       1  UNL1        0.0618
     29 H           4.2501    1.8778   -1.6628 H       1  UNL1        0.0623
     30 H          -4.5820   -2.5492    0.6828 H       1  UNL1        0.0623
     31 H          -6.9143   -1.7687    0.8700 H       1  UNL1        0.0618
     32 H          -7.5598    0.4632   -0.0019 H       1  UNL1        0.0618
     33 H          -5.8560    1.9101   -1.0796 H       1  UNL1        0.0618
     34 H          -3.5246    1.1415   -1.2880 H       1  UNL1        0.0623
@<TRIPOS>BOND
     1     1     2    1
     2     2     3    2
     3     3     4    1
     4     4     5    2
     5     5     6    1
     6     6     7    2
     7     7     8    1
     8     8     9   ar
     9     9    10   ar
    10    10    11   ar
    11    11    12   ar
    12    12    13   ar
    13     1    14   ar
    14    14    15   ar
    15    15    16   ar
    16    16    17   ar
    17    17    18   ar
    18    18     1   ar
    19    13     8   ar
    20     2    19    1
    21     3    20    1
    22     4    21    1
    23     5    22    1
    24     6    23    1
    25     7    24    1
    26     9    25    1
    27    10    26    1
    28    11    27    1
    29    12    28    1
    30    13    29    1
    31    14    30    1
    32    15    31    1
    33    16    32    1
    34    17    33    1
    35    18    34    1
