@<TRIPOS>MOLECULE
*****
 62 67 0 0 0
SMALL
GASTEIGER

@<TRIPOS>ATOM
      1 C           9.3769   -0.1924    0.0792 C.ar    1  UNL1       -0.0179
      2 C           7.9053   -0.1629    0.0587 C.ar    1  UNL1       -0.0178
      3 C           7.1729    0.2385    1.1854 C.ar    1  UNL1       -0.0535
      4 C           5.7728    0.2654    1.1664 C.ar    1  UNL1       -0.0535
      5 C           5.0563   -0.1058    0.0193 C.ar    1  UNL1       -0.0178
      6 C           3.5849   -0.0762   -0.0009 C.ar    1  UNL1       -0.0178
      7 C           2.8876    0.6222   -0.9974 C.ar    1  UNL1       -0.0535
      8 C           1.4875    0.6509   -1.0162 C.ar    1  UNL1       -0.0535
      9 C           0.7358   -0.0179   -0.0391 C.ar    1  UNL1       -0.0178
     10 C          -0.7357    0.0128   -0.0584 C.ar    1  UNL1       -0.0178
     11 C          -1.4535   -0.3562   -1.2053 C.ar    1  UNL1       -0.0535
     12 C          -2.8536   -0.3281   -1.2231 C.ar    1  UNL1       -0.0535
     13 C          -3.5848    0.0727   -0.0954 C.ar    1  UNL1       -0.0178
     14 C          -5.0562    0.1037   -0.1145 C.ar    1  UNL1       -0.0178
     15 C          -5.7613    1.2618    0.2444 C.ar    1  UNL1       -0.0535
     16 C          -7.1613    1.2917    0.2255 C.ar    1  UNL1       -0.0535
     17 C          -7.9053    0.1639   -0.1507 C.ar    1  UNL1       -0.0178
     18 C          -9.3770    0.1950   -0.1691 C.ar    1  UNL1       -0.0179
     19 C         -10.0716    1.1869   -0.8816 C.ar    1  UNL1       -0.0540
     20 C         -11.4688    1.2169   -0.9000 C.ar    1  UNL1       -0.0612
     21 C         -12.1960    0.2548   -0.2040 C.ar    1  UNL1       -0.0617
     22 C         -11.5277   -0.7371    0.5091 C.ar    1  UNL1       -0.0612
     23 C         -10.1305   -0.7663    0.5254 C.ar    1  UNL1       -0.0540
     24 C          -7.2003   -0.9945   -0.5085 C.ar    1  UNL1       -0.0535
     25 C          -5.8002   -1.0237   -0.4919 C.ar    1  UNL1       -0.0535
     26 C          -2.8670    0.4429    1.0511 C.ar    1  UNL1       -0.0535
     27 C          -1.4669    0.4123    1.0697 C.ar    1  UNL1       -0.0535
     28 C           1.4331   -0.7166    0.9571 C.ar    1  UNL1       -0.0535
     29 C           2.8331   -0.7452    0.9759 C.ar    1  UNL1       -0.0535
     30 C           5.7888   -0.5059   -1.1078 C.ar    1  UNL1       -0.0535
     31 C           7.1888   -0.5352   -1.0879 C.ar    1  UNL1       -0.0535
     32 C          10.1189    0.9412    0.4514 C.ar    1  UNL1       -0.0540
     33 C          11.5161    0.9142    0.4707 C.ar    1  UNL1       -0.0612
     34 C          12.1959   -0.2490    0.1189 C.ar    1  UNL1       -0.0617
     35 C          11.4801   -1.3842   -0.2527 C.ar    1  UNL1       -0.0612
     36 C          10.0829   -1.3551   -0.2726 C.ar    1  UNL1       -0.0540
     37 H           7.6899    0.5269    2.0985 H       1  UNL1        0.0624
     38 H           5.2437    0.5909    2.0599 H       1  UNL1        0.0624
     39 H           3.4326    1.1674   -1.7656 H       1  UNL1        0.0624
     40 H           0.9862    1.2176   -1.7984 H       1  UNL1        0.0624
     41 H          -0.9253   -0.6812   -2.0996 H       1  UNL1        0.0624
     42 H          -3.3712   -0.6149   -2.1365 H       1  UNL1        0.0624
     43 H          -5.2227    2.1616    0.5352 H       1  UNL1        0.0624
     44 H          -7.6695    2.2081    0.5190 H       1  UNL1        0.0624
     45 H          -9.5230    1.9416   -1.4417 H       1  UNL1        0.0624
     46 H         -11.9868    1.9908   -1.4603 H       1  UNL1        0.0618
     47 H         -13.2825    0.2778   -0.2175 H       1  UNL1        0.0618
     48 H         -12.0917   -1.4879    1.0561 H       1  UNL1        0.0618
     49 H          -9.6284   -1.5432    1.0985 H       1  UNL1        0.0624
     50 H          -7.7391   -1.8888   -0.8153 H       1  UNL1        0.0624
     51 H          -5.2928   -1.9456   -0.7692 H       1  UNL1        0.0624
     52 H          -3.3956    0.7517    1.9509 H       1  UNL1        0.0624
     53 H          -0.9490    0.7153    1.9776 H       1  UNL1        0.0624
     54 H           0.8882   -1.2617    1.7254 H       1  UNL1        0.0624
     55 H           3.3346   -1.3118    1.7582 H       1  UNL1        0.0624
     56 H           5.2719   -0.8104   -2.0157 H       1  UNL1        0.0624
     57 H           7.7190   -0.8446   -1.9866 H       1  UNL1        0.0624
     58 H           9.6079    1.8640    0.7189 H       1  UNL1        0.0624
     59 H          12.0713    1.8032    0.7582 H       1  UNL1        0.0618
     60 H          13.2823   -0.2709    0.1342 H       1  UNL1        0.0618
     61 H          12.0070   -2.2950   -0.5249 H       1  UNL1        0.0618
     62 H           9.5430   -2.2567   -0.5549 H       1  UNL1        0.0624
@<TRIPOS>BOND
     1     1     2    1
     2     2     3   ar
     3     3     4   ar
     4     4     5   ar
     5     5     6    1
     6     6     7   ar
     7     7     8   ar
     8     8     9   ar
     9     9    10    1
    10    10    11   ar
    11    11    12   ar
    12    12    13   ar
    13    13    14    1
    14    14    15   ar
    15    15    16   ar
    16    16    17   ar
    17    17    18    1
    18    18    19   ar
    19    19    20   ar
    20    20    21   ar
    21    21    22   ar
    22    22    23   ar
    23    17    24   ar
    24    24    25   ar
    25    13    26   ar
    26    26    27   ar
    27     9    28   ar
    28    28    29   ar
    29     5    30   ar
    30    30    31   ar
    31     1    32   ar
    32    32    33   ar
    33    33    34   ar
    34    34    35   ar
    35    35    36   ar
    36    36     1   ar
    37    31     2   ar
    38    29     6   ar
    39    27    10   ar
    40    25    14   ar
    41    23    18   ar
    42     3    37    1
    43     4    38    1
    44     7    39    1
    45     8    40    1
    46    11    41    1
    47    12    42    1
    48    15    43    1
    49    16    44    1
    50    19    45    1
    51    20    46    1
    52    21    47    1
    53    22    48    1
    54    23    49    1
    55    24    50    1
    56    25    51    1
    57    26    52    1
    58    27    53    1
    59    28    54    1
    60    29    55    1
    61    30    56    1
    62    31    57    1
    63    32    58    1
    64    33    59    1
    65    34    60    1
    66    35    61    1
    67    36    62    1
