@<TRIPOS>MOLECULE
*****
 22 23 0 0 0
SMALL
GASTEIGER

@<TRIPOS>ATOM
      1 C           0.7298   -0.0518   -0.1531 C.ar    1  UNL1       -0.0179
      2 C          -0.7298    0.0518   -0.3162 C.ar    1  UNL1       -0.0179
      3 C          -1.4554    1.0868    0.2971 C.ar    1  UNL1       -0.0540
      4 C          -2.8411    1.1855    0.1433 C.ar    1  UNL1       -0.0612
      5 C          -3.5252    0.2501   -0.6287 C.ar    1  UNL1       -0.0617
      6 C          -2.8255   -0.7835   -1.2460 C.ar    1  UNL1       -0.0612
      7 C          -1.4400   -0.8814   -1.0901 C.ar    1  UNL1       -0.0540
      8 C           1.5706    1.0336   -0.4512 C.ar    1  UNL1       -0.0540
      9 C           2.9563    0.9361   -0.2972 C.ar    1  UNL1       -0.0612
     10 C           3.5252   -0.2501    0.1593 C.ar    1  UNL1       -0.0617
     11 C           2.7102   -1.3380    0.4612 C.ar    1  UNL1       -0.0612
     12 C           1.3248   -1.2390    0.3055 C.ar    1  UNL1       -0.0540
     13 H          -0.9417    1.8214    0.9140 H       1  UNL1        0.0624
     14 H          -3.3840    1.9918    0.6293 H       1  UNL1        0.0618
     15 H          -4.6025    0.3265   -0.7491 H       1  UNL1        0.0618
     16 H          -3.3554   -1.5137   -1.8519 H       1  UNL1        0.0618
     17 H          -0.9109   -1.6900   -1.5903 H       1  UNL1        0.0624
     18 H           1.1474    1.9657   -0.8202 H       1  UNL1        0.0624
     19 H           3.5892    1.7864   -0.5369 H       1  UNL1        0.0618
     20 H           4.6025   -0.3265    0.2797 H       1  UNL1        0.0618
     21 H           3.1501   -2.2645    0.8208 H       1  UNL1        0.0618
     22 H           0.7051   -2.0971    0.5580 H       1  UNL1        0.0624
@<TRIPOS>BOND
     1     1     2    1
     2     2     3   ar
     3     3     4   ar
     4     4     5   ar
     5     5     6   ar
     6     6     7   ar
     7     1     8   ar
     8     8     9   ar
     9     9    10   ar
    10    10    11   ar
    11    11    12   ar
    12    12     1   ar
    13     7     2   ar
    14     3    13    1
    15     4    14    1
    16     5    15    1
    17     6    16    1
    18     7    17    1
    19     8    18    1
    20     9    19    1
    21    10    20    1
    22    11    21    1
    23    12    22    1
