@<TRIPOS>MOLECULE
*****
 33 37 0 0 0
SMALL
GASTEIGER

@<TRIPOS>ATOM
      1 C           1.3438    0.6185   -0.2049 C.ar    1  UNL1       -0.0172
      2 C           2.7945    0.5101    0.0269 C.ar    1  UNL1       -0.0179
      3 C           3.4922   -0.6662   -0.2938 C.ar    1  UNL1       -0.0540
      4 C           4.8684   -0.7696   -0.0733 C.ar    1  UNL1       -0.0612
      5 C           5.5694    0.3023    0.4730 C.ar    1  UNL1       -0.0617
      6 C           4.8964    1.4772    0.7983 C.ar    1  UNL1       -0.0612
      7 C           3.5205    1.5798    0.5763 C.ar    1  UNL1       -0.0540
      8 C           0.4610   -0.3216    0.3655 C.ar    1  UNL1       -0.0442
      9 C          -0.8894   -0.1796    0.1228 C.ar    1  UNL1        0.0101
     10 C          -1.3900    0.9010   -0.6944 C.ar    1  UNL1        0.0269
     11 C          -2.8329    0.7766   -0.7577 C.ar    1  UNL1        0.1463
     12 N          -3.9267    1.3075   -1.2481 N.ar    1  UNL1       -0.2349
     13 C          -4.9562    0.4677   -0.7603 C.ar    1  UNL1        0.0538
     14 C          -4.4533   -0.5607    0.0213 C.ar    1  UNL1        0.0666
     15 N          -3.1298   -0.3095   -0.0189 N.ar    1  UNL1       -0.2921
     16 C          -2.0661   -0.9633    0.5559 C.ar    1  UNL1        0.0564
     17 C          -2.3656   -2.0452    1.2925 C.ar    1  UNL1       -0.0371
     18 C          -3.8013   -2.4080    1.4000 C.ar    1  UNL1       -0.0578
     19 C          -4.7977   -1.7029    0.7956 C.ar    1  UNL1       -0.0362
     20 C          -0.5460    1.8263   -1.2597 C.ar    1  UNL1       -0.0499
     21 C           0.8242    1.6756   -1.0076 C.ar    1  UNL1       -0.0533
     22 H           2.9661   -1.5116   -0.7327 H       1  UNL1        0.0624
     23 H           5.3916   -1.6865   -0.3320 H       1  UNL1        0.0618
     24 H           6.6397    0.2226    0.6445 H       1  UNL1        0.0618
     25 H           5.4402    2.3151    1.2269 H       1  UNL1        0.0618
     26 H           3.0124    2.5033    0.8469 H       1  UNL1        0.0624
     27 H           0.8304   -1.1295    0.9890 H       1  UNL1        0.0630
     28 H          -5.9890    0.6715   -1.0124 H       1  UNL1        0.0851
     29 H          -1.6206   -2.6468    1.7980 H       1  UNL1        0.0638
     30 H          -4.0375   -3.2847    1.9977 H       1  UNL1        0.0619
     31 H          -5.8375   -1.9966    0.8956 H       1  UNL1        0.0639
     32 H          -0.9241    2.6351   -1.8754 H       1  UNL1        0.0625
     33 H           1.5129    2.3923   -1.4554 H       1  UNL1        0.0624
@<TRIPOS>BOND
     1     1     2    1
     2     2     3   ar
     3     3     4   ar
     4     4     5   ar
     5     5     6   ar
     6     6     7   ar
     7     1     8   ar
     8     8     9   ar
     9     9    10   ar
    10    10    11   ar
    11    11    12   ar
    12    12    13   ar
    13    13    14   ar
    14    14    15   ar
    15    15    16   ar
    16    16    17   ar
    17    17    18   ar
    18    18    19   ar
    19    10    20   ar
    20    20    21   ar
    21    21     1   ar
    22     7     2   ar
    23    16     9   ar
    24    15    11   ar
    25    19    14   ar
    26     3    22    1
    27     4    23    1
    28     5    24    1
    29     6    25    1
    30     7    26    1
    31     8    27    1
    32    13    28    1
    33    17    29    1
    34    18    30    1
    35    19    31    1
    36    20    32    1
    37    21    33    1
