@<TRIPOS>MOLECULE
*****
 28 30 0 0 0
SMALL
GASTEIGER

@<TRIPOS>ATOM
      1 C           1.0915   -0.7718   -0.5026 C.ar    1  UNL1        0.2278
      2 C           2.4292   -0.2663   -0.2042 C.ar    1  UNL1        0.0369
      3 C           3.5538   -0.9691   -0.6639 C.ar    1  UNL1       -0.0495
      4 C           4.8458   -0.5104   -0.3942 C.ar    1  UNL1       -0.0610
      5 C           5.0301    0.6590    0.3398 C.ar    1  UNL1       -0.0617
      6 C           3.9252    1.3695    0.8040 C.ar    1  UNL1       -0.0610
      7 C           2.6328    0.9098    0.5338 C.ar    1  UNL1       -0.0495
      8 N           0.7392   -1.8504   -1.1770 N.ar    1  UNL1       -0.2168
      9 C          -0.6326   -1.8267   -1.1414 C.ar    1  UNL1        0.0743
     10 C          -1.0788   -0.7267   -0.4417 C.ar    1  UNL1        0.1556
     11 C          -2.3777   -0.1775   -0.0762 C.ar    1  UNL1        0.0189
     12 C          -3.5604   -0.8244   -0.4660 C.ar    1  UNL1       -0.0510
     13 C          -4.8111   -0.3038   -0.1193 C.ar    1  UNL1       -0.0611
     14 C          -4.8972    0.8714    0.6224 C.ar    1  UNL1       -0.0617
     15 C          -3.7344    1.5268    1.0180 C.ar    1  UNL1       -0.0611
     16 C          -2.4845    1.0058    0.6709 C.ar    1  UNL1       -0.0510
     17 O           0.0339   -0.0412   -0.0264 O.2     1  UNL1       -0.4353
     18 H           3.4241   -1.8849   -1.2390 H       1  UNL1        0.0625
     19 H           5.7054   -1.0674   -0.7581 H       1  UNL1        0.0618
     20 H           6.0349    1.0165    0.5500 H       1  UNL1        0.0618
     21 H           4.0673    2.2823    1.3770 H       1  UNL1        0.0618
     22 H           1.7853    1.4810    0.9064 H       1  UNL1        0.0625
     23 H          -1.2192   -2.5984   -1.6189 H       1  UNL1        0.0868
     24 H          -3.5276   -1.7436   -1.0457 H       1  UNL1        0.0625
     25 H          -5.7177   -0.8176   -0.4294 H       1  UNL1        0.0618
     26 H          -5.8693    1.2762    0.8921 H       1  UNL1        0.0618
     27 H          -3.7968    2.4446    1.5971 H       1  UNL1        0.0618
     28 H          -1.5914    1.5375    0.9925 H       1  UNL1        0.0625
@<TRIPOS>BOND
     1     1     2    1
     2     2     3   ar
     3     3     4   ar
     4     4     5   ar
     5     5     6   ar
     6     6     7   ar
     7     1     8   ar
     8     8     9   ar
     9     9    10   ar
    10    10    11    1
    11    11    12   ar
    12    12    13   ar
    13    13    14   ar
    14    14    15   ar
    15    15    16   ar
    16    10    17   ar
    17    17     1   ar
    18     7     2   ar
    19    16    11   ar
    20     3    18    1
    21     4    19    1
    22     5    20    1
    23     6    21    1
    24     7    22    1
    25     9    23    1
    26    12    24    1
    27    13    25    1
    28    14    26    1
    29    15    27    1
    30    16    28    1
