@<TRIPOS>MOLECULE
*****
 35 38 0 0 0
SMALL
GASTEIGER

@<TRIPOS>ATOM
      1 C          -1.4273    1.1257    0.6518 C.ar    1  UNL1        0.1456
      2 C          -1.6645   -0.3126    0.5499 C.ar    1  UNL1        0.0178
      3 C          -1.8777   -0.9208   -0.6933 C.ar    1  UNL1       -0.0511
      4 C          -2.1201   -2.2937   -0.7742 C.ar    1  UNL1       -0.0611
      5 C          -2.1689   -3.0635    0.3873 C.ar    1  UNL1       -0.0617
      6 C          -1.9867   -2.4613    1.6314 C.ar    1  UNL1       -0.0611
      7 C          -1.7434   -1.0889    1.7130 C.ar    1  UNL1       -0.0511
      8 N          -2.3148    1.9630    1.1684 N.ar    1  UNL1       -0.2349
      9 C          -1.7890    3.2142    1.0353 C.ar    1  UNL1        0.0538
     10 C          -0.5471    3.1597    0.4569 C.ar    1  UNL1        0.0666
     11 N          -0.2756    1.8047    0.2401 N.ar    1  UNL1       -0.2922
     12 C           0.9657    1.3708   -0.2865 C.ar    1  UNL1        0.0557
     13 C           1.3558   -0.0366   -0.4604 C.ar    1  UNL1       -0.0011
     14 C           1.4281   -0.6015   -1.7416 C.ar    1  UNL1       -0.0526
     15 C           1.8208   -1.9312   -1.9048 C.ar    1  UNL1       -0.0611
     16 C           2.1524   -2.7020   -0.7916 C.ar    1  UNL1       -0.0617
     17 C           2.0982   -2.1440    0.4848 C.ar    1  UNL1       -0.0611
     18 C           1.7078   -0.8140    0.6507 C.ar    1  UNL1       -0.0526
     19 C           1.8878    2.3040   -0.6141 C.ar    1  UNL1       -0.0371
     20 C           1.5951    3.7137   -0.4322 C.ar    1  UNL1       -0.0578
     21 C           0.4266    4.1247    0.0885 C.ar    1  UNL1       -0.0362
     22 H          -1.8568   -0.3282   -1.6043 H       1  UNL1        0.0625
     23 H          -2.2740   -2.7607   -1.7431 H       1  UNL1        0.0618
     24 H          -2.3595   -4.1314    0.3234 H       1  UNL1        0.0618
     25 H          -2.0409   -3.0571    2.5384 H       1  UNL1        0.0618
     26 H          -1.6189   -0.6215    2.6872 H       1  UNL1        0.0625
     27 H          -2.3336    4.0897    1.3635 H       1  UNL1        0.0851
     28 H           1.1704   -0.0119   -2.6183 H       1  UNL1        0.0624
     29 H           1.8652   -2.3665   -2.8995 H       1  UNL1        0.0618
     30 H           2.4528   -3.7388   -0.9181 H       1  UNL1        0.0618
     31 H           2.3560   -2.7453    1.3525 H       1  UNL1        0.0618
     32 H           1.6721   -0.3919    1.6524 H       1  UNL1        0.0624
     33 H           2.8679    2.0414   -1.0026 H       1  UNL1        0.0638
     34 H           2.3572    4.4312   -0.7211 H       1  UNL1        0.0619
     35 H           0.2189    5.1808    0.2303 H       1  UNL1        0.0639
@<TRIPOS>BOND
     1     1     2    1
     2     2     3   ar
     3     3     4   ar
     4     4     5   ar
     5     5     6   ar
     6     6     7   ar
     7     1     8   ar
     8     8     9   ar
     9     9    10   ar
    10    10    11   ar
    11    11    12   ar
    12    12    13    1
    13    13    14   ar
    14    14    15   ar
    15    15    16   ar
    16    16    17   ar
    17    17    18   ar
    18    12    19   ar
    19    19    20   ar
    20    20    21   ar
    21    11     1   ar
    22     7     2   ar
    23    21    10   ar
    24    18    13   ar
    25     3    22    1
    26     4    23    1
    27     5    24    1
    28     6    25    1
    29     7    26    1
    30     9    27    1
    31    14    28    1
    32    15    29    1
    33    16    30    1
    34    17    31    1
    35    18    32    1
    36    19    33    1
    37    20    34    1
    38    21    35    1
