@<TRIPOS>MOLECULE
*****
 39 44 0 0 0
SMALL
GASTEIGER

@<TRIPOS>ATOM
      1 SI         -1.4184   -0.0853    0.8057 Si      1  UNL1        0.0000
      2 C          -0.0476   -0.0921   -0.5115 C.2     1  UNL1        0.0000
      3 C          -0.5989   -0.1356   -1.7447 C.2     1  UNL1        0.0000
      4 C          -2.0545   -0.1470   -1.7981 C.2     1  UNL1        0.0000
      5 C          -2.6862   -0.1225   -0.6059 C.2     1  UNL1        0.0000
      6 C          -4.1279   -0.0563   -0.3960 C.ar    1  UNL1        0.0000
      7 C          -4.9432    0.8771   -1.0790 C.ar    1  UNL1        0.0000
      8 C          -6.3444    0.9727   -0.9048 C.ar    1  UNL1        0.0000
      9 C          -7.0653    0.1412   -0.0338 C.ar    1  UNL1        0.0000
     10 C          -6.3116   -0.8221    0.6776 C.ar    1  UNL1        0.0000
     11 N          -6.8128   -1.7089    1.5511 N.ar    1  UNL1        0.0000
     12 S          -5.5298   -2.6107    2.0919 S.2     1  UNL1        0.0000
     13 N          -4.2824   -1.9138    1.2529 N.ar    1  UNL1        0.0000
     14 C          -4.8109   -0.9324    0.5000 C.ar    1  UNL1        0.0000
     15 C           1.3404   -0.0335   -0.2373 C.ar    1  UNL1        0.0000
     16 S           2.5559    0.4251   -1.3999 S.2     1  UNL1        0.0000
     17 C           3.8851    0.2449   -0.2921 C.ar    1  UNL1        0.0000
     18 C           5.2382    0.4995   -0.6976 C.ar    1  UNL1        0.0000
     19 C           6.4124    0.3997    0.0347 C.ar    1  UNL1        0.0000
     20 C           7.4832    0.7590   -0.8206 C.ar    1  UNL1        0.0000
     21 C           6.9125    1.0600   -2.0306 C.ar    1  UNL1        0.0000
     22 O           5.5678    0.9082   -1.9690 O.2     1  UNL1        0.0000
     23 C           3.3641   -0.1482    0.8935 C.ar    1  UNL1        0.0000
     24 C           3.7631   -0.4844    2.2022 C.ar    1  UNL1        0.0000
     25 C           2.5806   -0.8024    2.8768 C.ar    1  UNL1        0.0000
     26 O           1.4443   -0.6955    2.1029 O.2     1  UNL1        0.0000
     27 C           1.9942   -0.2958    0.9194 C.ar    1  UNL1        0.0000
     28 H          -1.4780    1.2010    1.5510 H       1  UNL1        0.0000
     29 H          -1.4099   -1.3228    1.6261 H       1  UNL1        0.0000
     30 H          -0.0395   -0.1496   -2.6730 H       1  UNL1        0.0000
     31 H          -2.5598   -0.1591   -2.7568 H       1  UNL1        0.0000
     32 H          -4.4728    1.5737   -1.7753 H       1  UNL1        0.0000
     33 H          -6.8879    1.7282   -1.4732 H       1  UNL1        0.0000
     34 H          -8.1383    0.2244    0.0900 H       1  UNL1        0.0000
     35 H           6.4950    0.1014    1.0691 H       1  UNL1        0.0000
     36 H           8.5371    0.7934   -0.5834 H       1  UNL1        0.0000
     37 H           7.3028    1.3812   -2.9862 H       1  UNL1        0.0000
     38 H           4.7541   -0.5070    2.6301 H       1  UNL1        0.0000
     39 H           2.3894   -1.1184    3.8942 H       1  UNL1        0.0000
@<TRIPOS>BOND
     1     1     2    1
     2     2     3    2
     3     3     4    1
     4     4     5    2
     5     5     6    1
     6     6     7   ar
     7     7     8   ar
     8     8     9   ar
     9     9    10   ar
    10    10    11   ar
    11    11    12   ar
    12    12    13   ar
    13    13    14   ar
    14     2    15    1
    15    15    16   ar
    16    16    17   ar
    17    17    18    1
    18    18    19   ar
    19    19    20   ar
    20    20    21   ar
    21    21    22   ar
    22    17    23   ar
    23    23    24   ar
    24    24    25   ar
    25    25    26   ar
    26    26    27   ar
    27     5     1    1
    28    14     6   ar
    29    27    15   ar
    30    14    10   ar
    31    22    18   ar
    32    27    23   ar
    33     1    28    1
    34     1    29    1
    35     3    30    1
    36     4    31    1
    37     7    32    1
    38     8    33    1
    39     9    34    1
    40    19    35    1
    41    20    36    1
    42    21    37    1
    43    24    38    1
    44    25    39    1
