@<TRIPOS>MOLECULE
*****
 28 31 0 0 0
SMALL
GASTEIGER

@<TRIPOS>ATOM
      1 C          -2.2024   -0.1245   -0.0924 C.ar    1  UNL1        0.1116
      2 C          -3.6814   -0.1300   -0.1115 C.ar    1  UNL1        0.0101
      3 C          -4.3552    1.0905   -0.2547 C.ar    1  UNL1       -0.0339
      4 C          -5.7398    1.1022   -0.2744 C.ar    1  UNL1        0.0282
      5 N          -6.4969   -0.0068   -0.1624 N.ar    1  UNL1       -0.2632
      6 C          -5.8403   -1.1757   -0.0250 C.ar    1  UNL1        0.0282
      7 C          -4.4580   -1.2883    0.0057 C.ar    1  UNL1       -0.0339
      8 N          -1.4803    0.9805   -0.2045 N.ar    1  UNL1       -0.2302
      9 C          -0.1607    0.6565   -0.1513 C.ar    1  UNL1        0.1364
     10 S           1.2870    1.5985   -0.2358 S.2     1  UNL1       -0.0470
     11 C           2.2024    0.1245   -0.0614 C.ar    1  UNL1        0.1116
     12 C           3.6814    0.1300   -0.0424 C.ar    1  UNL1        0.0101
     13 C           4.4580    1.2883   -0.1596 C.ar    1  UNL1       -0.0339
     14 C           5.8403    1.1757   -0.1289 C.ar    1  UNL1        0.0282
     15 N           6.4969    0.0068    0.0085 N.ar    1  UNL1       -0.2632
     16 C           5.7398   -1.1022    0.1205 C.ar    1  UNL1        0.0282
     17 C           4.3552   -1.0905    0.1009 C.ar    1  UNL1       -0.0339
     18 N           1.4803   -0.9805    0.0506 N.ar    1  UNL1       -0.2302
     19 C           0.1607   -0.6565   -0.0026 C.ar    1  UNL1        0.1364
     20 S          -1.2870   -1.5985    0.0819 S.2     1  UNL1       -0.0470
     21 H          -3.8099    2.0254   -0.3504 H       1  UNL1        0.0639
     22 H          -6.2899    2.0324   -0.3840 H       1  UNL1        0.0830
     23 H          -6.4744   -2.0538    0.0632 H       1  UNL1        0.0830
     24 H          -4.0239   -2.2750    0.1200 H       1  UNL1        0.0639
     25 H           4.0239    2.2750   -0.2740 H       1  UNL1        0.0639
     26 H           6.4744    2.0538   -0.2171 H       1  UNL1        0.0830
     27 H           6.2899   -2.0324    0.2302 H       1  UNL1        0.0830
     28 H           3.8099   -2.0254    0.1965 H       1  UNL1        0.0639
@<TRIPOS>BOND
     1     1     2    1
     2     2     3   ar
     3     3     4   ar
     4     4     5   ar
     5     5     6   ar
     6     6     7   ar
     7     1     8   ar
     8     8     9   ar
     9     9    10   ar
    10    10    11   ar
    11    11    12    1
    12    12    13   ar
    13    13    14   ar
    14    14    15   ar
    15    15    16   ar
    16    16    17   ar
    17    11    18   ar
    18     9    19   ar
    19    19    20   ar
    20    20     1   ar
    21     7     2   ar
    22    17    12   ar
    23    19    18   ar
    24     3    21    1
    25     4    22    1
    26     6    23    1
    27     7    24    1
    28    13    25    1
    29    14    26    1
    30    16    27    1
    31    17    28    1
