@<TRIPOS>MOLECULE
*****
 35 38 0 0 0
SMALL
GASTEIGER

@<TRIPOS>ATOM
      1 C           2.3866   -0.7387   -0.0197 C.ar    1  UNL1        0.0178
      2 C           1.0303   -0.1905   -0.0927 C.ar    1  UNL1        0.1459
      3 N          -0.0660   -0.9278   -0.1516 N.ar    1  UNL1       -0.2266
      4 C          -1.1247   -0.0526   -0.2220 C.ar    1  UNL1        0.0971
      5 C          -2.4990   -0.5110   -0.3187 C.ar    1  UNL1        0.0024
      6 C          -3.5364    0.1092    0.3895 C.ar    1  UNL1       -0.0525
      7 C          -4.8485   -0.3599    0.2801 C.ar    1  UNL1       -0.0611
      8 C          -5.1326   -1.4579   -0.5303 C.ar    1  UNL1       -0.0617
      9 C          -4.1057   -2.0938   -1.2251 C.ar    1  UNL1       -0.0611
     10 C          -2.7944   -1.6254   -1.1153 C.ar    1  UNL1       -0.0525
     11 C          -0.6753    1.2519   -0.2172 C.ar    1  UNL1        0.0739
     12 N           0.7091    1.1619   -0.0793 N.ar    1  UNL1       -0.2988
     13 C           1.5239    2.2923    0.0574 C.ar    1  UNL1        0.0118
     14 C           0.9753    3.5174    0.0091 C.ar    1  UNL1       -0.0451
     15 C          -0.4562    3.6387   -0.2019 C.ar    1  UNL1       -0.0584
     16 C          -1.2474    2.5546   -0.3116 C.ar    1  UNL1       -0.0357
     17 C           3.3932   -0.3331   -0.9069 C.ar    1  UNL1       -0.0511
     18 C           4.6766   -0.8782   -0.8196 C.ar    1  UNL1       -0.0611
     19 C           4.9615   -1.8418    0.1466 C.ar    1  UNL1       -0.0617
     20 C           3.9625   -2.2690    1.0194 C.ar    1  UNL1       -0.0611
     21 C           2.6796   -1.7245    0.9319 C.ar    1  UNL1       -0.0511
     22 H          -3.3318    0.9478    1.0497 H       1  UNL1        0.0624
     23 H          -5.6463    0.1262    0.8353 H       1  UNL1        0.0618
     24 H          -6.1524   -1.8249   -0.6122 H       1  UNL1        0.0618
     25 H          -4.3208   -2.9575   -1.8486 H       1  UNL1        0.0618
     26 H          -1.9964   -2.1337   -1.6535 H       1  UNL1        0.0624
     27 H           2.5836    2.1379    0.2118 H       1  UNL1        0.0813
     28 H           1.5701    4.4179    0.1168 H       1  UNL1        0.0632
     29 H          -0.8742    4.6383   -0.2756 H       1  UNL1        0.0619
     30 H          -2.3133    2.6659   -0.4826 H       1  UNL1        0.0639
     31 H           3.1823    0.3960   -1.6858 H       1  UNL1        0.0625
     32 H           5.4507   -0.5595   -1.5129 H       1  UNL1        0.0618
     33 H           5.9585   -2.2702    0.2110 H       1  UNL1        0.0618
     34 H           4.1771   -3.0318    1.7634 H       1  UNL1        0.0618
     35 H           1.9005   -2.0741    1.6072 H       1  UNL1        0.0625
@<TRIPOS>BOND
     1     1     2    1
     2     2     3   ar
     3     3     4   ar
     4     4     5    1
     5     5     6   ar
     6     6     7   ar
     7     7     8   ar
     8     8     9   ar
     9     9    10   ar
    10     4    11   ar
    11    11    12   ar
    12    12    13   ar
    13    13    14   ar
    14    14    15   ar
    15    15    16   ar
    16     1    17   ar
    17    17    18   ar
    18    18    19   ar
    19    19    20   ar
    20    20    21   ar
    21    21     1   ar
    22    12     2   ar
    23    10     5   ar
    24    16    11   ar
    25     6    22    1
    26     7    23    1
    27     8    24    1
    28     9    25    1
    29    10    26    1
    30    13    27    1
    31    14    28    1
    32    15    29    1
    33    16    30    1
    34    17    31    1
    35    18    32    1
    36    19    33    1
    37    20    34    1
    38    21    35    1
