@<TRIPOS>MOLECULE
*****
 41 44 0 0 0
SMALL
GASTEIGER

@<TRIPOS>ATOM
      1 C          -0.0720    1.9521   -0.8756 C.ar    1  UNL1        0.0039
      2 C           0.4913    0.8795   -0.0709 C.ar    1  UNL1        0.1165
      3 N           1.6427    0.2820   -0.4070 N.ar    1  UNL1       -0.1468
      4 N           1.8124   -0.6298    0.5821 N.ar    1  UNL1       -0.1495
      5 C           2.9334   -1.5006    0.6177 C.ar    1  UNL1        0.0862
      6 C           3.0714   -2.4287    1.6601 C.ar    1  UNL1       -0.0345
      7 C           4.1753   -3.2834    1.6907 C.ar    1  UNL1       -0.0597
      8 C           5.1409   -3.2156    0.6863 C.ar    1  UNL1       -0.0616
      9 C           5.0075   -2.2941   -0.3522 C.ar    1  UNL1       -0.0597
     10 C           3.9066   -1.4359   -0.3903 C.ar    1  UNL1       -0.0345
     11 N           0.8509   -0.6561    1.5416 N.ar    1  UNL1       -0.1512
     12 C          -0.0119    0.2786    1.1138 C.ar    1  UNL1        0.0954
     13 C          -1.2701    0.5533    1.8630 C.3     1  UNL1        0.0187
     14 C          -2.3816   -0.1285    1.0998 C.ar    1  UNL1       -0.0415
     15 C          -3.2506    0.6125    0.2841 C.ar    1  UNL1       -0.0582
     16 C          -4.2730   -0.0218   -0.4237 C.ar    1  UNL1       -0.0615
     17 C          -4.4418   -1.4012   -0.3226 C.ar    1  UNL1       -0.0617
     18 C          -3.5885   -2.1490    0.4857 C.ar    1  UNL1       -0.0615
     19 C          -2.5649   -1.5175    1.1935 C.ar    1  UNL1       -0.0582
     20 C          -0.3337    1.7418   -2.2352 C.ar    1  UNL1       -0.0525
     21 C          -0.8925    2.7594   -3.0106 C.ar    1  UNL1       -0.0611
     22 C          -1.1852    3.9946   -2.4340 C.ar    1  UNL1       -0.0617
     23 C          -0.9149    4.2167   -1.0841 C.ar    1  UNL1       -0.0611
     24 C          -0.3573    3.1996   -0.3060 C.ar    1  UNL1       -0.0525
     25 H           2.3286   -2.4970    2.4525 H       1  UNL1        0.0639
     26 H           4.2816   -4.0026    2.4989 H       1  UNL1        0.0618
     27 H           5.9992   -3.8823    0.7129 H       1  UNL1        0.0618
     28 H           5.7613   -2.2430   -1.1339 H       1  UNL1        0.0618
     29 H           3.8201   -0.7235   -1.2086 H       1  UNL1        0.0639
     30 H          -1.4542    1.6288    1.9528 H       1  UNL1        0.0378
     31 H          -1.2240    0.1578    2.8848 H       1  UNL1        0.0378
     32 H          -3.1357    1.6899    0.1873 H       1  UNL1        0.0620
     33 H          -4.9364    0.5616   -1.0569 H       1  UNL1        0.0618
     34 H          -5.2369   -1.8939   -0.8757 H       1  UNL1        0.0618
     35 H          -3.7163   -3.2256    0.5628 H       1  UNL1        0.0618
     36 H          -1.8998   -2.1156    1.8144 H       1  UNL1        0.0620
     37 H          -0.1061    0.7811   -2.6928 H       1  UNL1        0.0624
     38 H          -1.0952    2.5876   -4.0645 H       1  UNL1        0.0618
     39 H          -1.6158    4.7877   -3.0402 H       1  UNL1        0.0618
     40 H          -1.1306    5.1851   -0.6398 H       1  UNL1        0.0618
     41 H          -0.1341    3.3958    0.7397 H       1  UNL1        0.0624
@<TRIPOS>BOND
     1     1     2    1
     2     2     3   ar
     3     3     4   ar
     4     4     5    1
     5     5     6   ar
     6     6     7   ar
     7     7     8   ar
     8     8     9   ar
     9     9    10   ar
    10     4    11   ar
    11    11    12   ar
    12    12    13    1
    13    13    14    1
    14    14    15   ar
    15    15    16   ar
    16    16    17   ar
    17    17    18   ar
    18    18    19   ar
    19     1    20   ar
    20    20    21   ar
    21    21    22   ar
    22    22    23   ar
    23    23    24   ar
    24    24     1   ar
    25    12     2   ar
    26    10     5   ar
    27    19    14   ar
    28     6    25    1
    29     7    26    1
    30     8    27    1
    31     9    28    1
    32    10    29    1
    33    13    30    1
    34    13    31    1
    35    15    32    1
    36    16    33    1
    37    17    34    1
    38    18    35    1
    39    19    36    1
    40    20    37    1
    41    21    38    1
    42    22    39    1
    43    23    40    1
    44    24    41    1
