@<TRIPOS>MOLECULE
*****
 34 37 0 0 0
SMALL
GASTEIGER

@<TRIPOS>ATOM
      1 C           3.3563    0.1610    0.0882 C.ar    1  UNL1        0.0037
      2 C           1.9252    0.4611    0.0155 C.ar    1  UNL1        0.1130
      3 N           0.9795   -0.4604    0.2535 N.ar    1  UNL1       -0.1471
      4 N          -0.1935    0.2212    0.0828 N.ar    1  UNL1       -0.1491
      5 C          -1.4572   -0.4341    0.2536 C.ar    1  UNL1        0.0938
      6 C          -1.4045   -1.8029    0.6030 C.ar    1  UNL1       -0.0339
      7 C          -2.5644   -2.5408    0.7947 C.ar    1  UNL1       -0.0591
      8 C          -3.7987   -1.9266    0.6413 C.ar    1  UNL1       -0.0539
      9 C          -3.8983   -0.5719    0.2957 C.ar    1  UNL1       -0.0158
     10 C          -2.7301    0.2184    0.0906 C.ar    1  UNL1        0.0092
     11 C          -2.9686    1.5801   -0.2564 C.ar    1  UNL1       -0.0519
     12 C          -4.2537    2.1183   -0.3902 C.ar    1  UNL1       -0.0611
     13 C          -5.3626    1.3183   -0.1828 C.ar    1  UNL1       -0.0612
     14 C          -5.1828   -0.0175    0.1577 C.ar    1  UNL1       -0.0540
     15 N          -0.0465    1.5273   -0.2512 N.ar    1  UNL1       -0.1549
     16 C           1.2766    1.6718   -0.2918 C.ar    1  UNL1        0.0776
     17 C           3.7948   -1.1318    0.4171 C.ar    1  UNL1       -0.0525
     18 C           5.1579   -1.4313    0.4897 C.ar    1  UNL1       -0.0611
     19 C           6.1029   -0.4415    0.2343 C.ar    1  UNL1       -0.0617
     20 C           5.6862    0.8465   -0.0935 C.ar    1  UNL1       -0.0611
     21 C           4.3219    1.1470   -0.1664 C.ar    1  UNL1       -0.0525
     22 H          -0.4522   -2.3161    0.7314 H       1  UNL1        0.0639
     23 H          -2.5053   -3.5923    1.0630 H       1  UNL1        0.0618
     24 H          -4.6957   -2.5238    0.7963 H       1  UNL1        0.0624
     25 H          -2.1520    2.2717   -0.4353 H       1  UNL1        0.0624
     26 H          -4.3753    3.1650   -0.6571 H       1  UNL1        0.0618
     27 H          -6.3632    1.7284   -0.2847 H       1  UNL1        0.0618
     28 H          -6.0675   -0.6315    0.3170 H       1  UNL1        0.0624
     29 H           1.6953    2.6367   -0.5393 H       1  UNL1        0.0870
     30 H           3.0733   -1.9212    0.6207 H       1  UNL1        0.0624
     31 H           5.4777   -2.4381    0.7459 H       1  UNL1        0.0618
     32 H           7.1633   -0.6739    0.2907 H       1  UNL1        0.0618
     33 H           6.4239    1.6199   -0.2930 H       1  UNL1        0.0618
     34 H           4.0374    2.1631   -0.4251 H       1  UNL1        0.0624
@<TRIPOS>BOND
     1     1     2    1
     2     2     3   ar
     3     3     4   ar
     4     4     5    1
     5     5     6   ar
     6     6     7   ar
     7     7     8   ar
     8     8     9   ar
     9     9    10   ar
    10    10    11   ar
    11    11    12   ar
    12    12    13   ar
    13    13    14   ar
    14     4    15   ar
    15    15    16   ar
    16     1    17   ar
    17    17    18   ar
    18    18    19   ar
    19    19    20   ar
    20    20    21   ar
    21    21     1   ar
    22    16     2   ar
    23    10     5   ar
    24    14     9   ar
    25     6    22    1
    26     7    23    1
    27     8    24    1
    28    11    25    1
    29    12    26    1
    30    13    27    1
    31    14    28    1
    32    16    29    1
    33    17    30    1
    34    18    31    1
    35    19    32    1
    36    20    33    1
    37    21    34    1
