@<TRIPOS>MOLECULE
*****
 27 29 0 0 0
SMALL
GASTEIGER

@<TRIPOS>ATOM
      1 C          -2.2628   -0.1159    0.0104 C.ar    1  UNL1        0.0037
      2 C          -0.9117   -0.6651    0.1446 C.ar    1  UNL1        0.1131
      3 N           0.1923    0.0865   -0.0028 N.ar    1  UNL1       -0.1457
      4 N           1.2087   -0.8048    0.2004 N.ar    1  UNL1       -0.1310
      5 C           2.5896   -0.4174    0.1344 C.ar    1  UNL1        0.1746
      6 N           3.5538   -1.3589    0.3477 N.ar    1  UNL1       -0.2347
      7 C           4.8411   -0.9593    0.2779 C.ar    1  UNL1        0.0300
      8 C           5.2297    0.3407    0.0044 C.ar    1  UNL1       -0.0435
      9 C           4.2401    1.2922   -0.2115 C.ar    1  UNL1       -0.0568
     10 C           2.9001    0.9145   -0.1470 C.ar    1  UNL1       -0.0157
     11 N           0.8220   -2.0826    0.4692 N.ar    1  UNL1       -0.1535
     12 C          -0.5058   -1.9860    0.4323 C.ar    1  UNL1        0.0776
     13 C          -3.3978   -0.9257    0.1699 C.ar    1  UNL1       -0.0525
     14 C          -4.6828   -0.3885    0.0391 C.ar    1  UNL1       -0.0611
     15 C          -4.8504    0.9630   -0.2523 C.ar    1  UNL1       -0.0617
     16 C          -3.7351    1.7803   -0.4136 C.ar    1  UNL1       -0.0611
     17 C          -2.4509    1.2444   -0.2831 C.ar    1  UNL1       -0.0525
     18 H           5.5768   -1.7391    0.4539 H       1  UNL1        0.0830
     19 H           6.2803    0.6056   -0.0395 H       1  UNL1        0.0633
     20 H           4.5076    2.3227   -0.4288 H       1  UNL1        0.0619
     21 H           2.1245    1.6561   -0.3152 H       1  UNL1        0.0655
     22 H          -1.1026   -2.8683    0.6139 H       1  UNL1        0.0870
     23 H          -3.3094   -1.9844    0.3976 H       1  UNL1        0.0624
     24 H          -5.5535   -1.0274    0.1653 H       1  UNL1        0.0618
     25 H          -5.8495    1.3792   -0.3536 H       1  UNL1        0.0618
     26 H          -3.8606    2.8358   -0.6411 H       1  UNL1        0.0618
     27 H          -1.5936    1.9022   -0.4134 H       1  UNL1        0.0624
@<TRIPOS>BOND
     1     1     2    1
     2     2     3   ar
     3     3     4   ar
     4     4     5    1
     5     5     6   ar
     6     6     7   ar
     7     7     8   ar
     8     8     9   ar
     9     9    10   ar
    10     4    11   ar
    11    11    12   ar
    12     1    13   ar
    13    13    14   ar
    14    14    15   ar
    15    15    16   ar
    16    16    17   ar
    17    17     1   ar
    18    12     2   ar
    19    10     5   ar
    20     7    18    1
    21     8    19    1
    22     9    20    1
    23    10    21    1
    24    12    22    1
    25    13    23    1
    26    14    24    1
    27    15    25    1
    28    16    26    1
    29    17    27    1
