@<TRIPOS>MOLECULE
*****
 23 26 0 0 0
SMALL
GASTEIGER

@<TRIPOS>ATOM
      1 C           0.4943   -0.7927    0.3000 C.ar    1  UNL1        0.0564
      2 N           1.0532    0.3971   -0.1021 N.ar    1  UNL1       -0.2921
      3 C           1.3549   -1.7535    0.6734 C.ar    1  UNL1       -0.0371
      4 C           2.8007   -1.4223    0.6093 C.ar    1  UNL1       -0.0578
      5 C           3.2728   -0.2130    0.1970 C.ar    1  UNL1       -0.0362
      6 C           2.3401    0.7873   -0.1930 C.ar    1  UNL1        0.0666
      7 C           2.2058    2.0858   -0.6594 C.ar    1  UNL1        0.0538
      8 N           0.8476    2.4418   -0.8363 N.ar    1  UNL1       -0.2349
      9 C           0.1935    1.3636   -0.4774 C.ar    1  UNL1        0.1463
     10 C          -1.1267    0.7854   -0.3209 C.ar    1  UNL1        0.0269
     11 C          -0.9607   -0.5672    0.1660 C.ar    1  UNL1        0.0095
     12 C          -2.0523   -1.3712    0.4112 C.ar    1  UNL1       -0.0519
     13 C          -3.3185   -0.8235    0.1696 C.ar    1  UNL1       -0.0611
     14 C          -3.4758    0.4989   -0.3062 C.ar    1  UNL1       -0.0611
     15 C          -2.3723    1.3211   -0.5574 C.ar    1  UNL1       -0.0505
     16 H           1.0432   -2.7341    1.0103 H       1  UNL1        0.0638
     17 H           3.4922   -2.2040    0.9127 H       1  UNL1        0.0619
     18 H           4.3372   -0.0047    0.1625 H       1  UNL1        0.0639
     19 H           2.9883    2.7992   -0.8840 H       1  UNL1        0.0851
     20 H          -1.9431   -2.3860    0.7759 H       1  UNL1        0.0624
     21 H          -4.2055   -1.4281    0.3516 H       1  UNL1        0.0618
     22 H          -4.4789    0.8847   -0.4804 H       1  UNL1        0.0618
     23 H          -2.4902    2.3355   -0.9223 H       1  UNL1        0.0625
@<TRIPOS>BOND
     1     1     2   ar
     2     1     3   ar
     3     3     4   ar
     4     4     5   ar
     5     5     6   ar
     6     6     7   ar
     7     7     8   ar
     8     8     9   ar
     9     9    10   ar
    10    10    11   ar
    11    11    12   ar
    12    12    13   ar
    13    13    14   ar
    14    14    15   ar
    15    11     1   ar
    16     6     2   ar
    17     9     2   ar
    18    15    10   ar
    19     3    16    1
    20     4    17    1
    21     5    18    1
    22     7    19    1
    23    12    20    1
    24    13    21    1
    25    14    22    1
    26    15    23    1
