@<TRIPOS>MOLECULE
*****
 41 45 0 0 0
SMALL
GASTEIGER

@<TRIPOS>ATOM
      1 C          -3.6072    0.2467    0.0218 C.ar    1  UNL1        0.0317
      2 N          -4.7809   -0.0513    0.7445 N.pl3   1  UNL1       -0.3297
      3 C          -4.8968   -0.2475    2.1628 C.3     1  UNL1        0.0136
      4 C          -6.4079   -0.0790    1.9759 C.3     1  UNL1       -0.0214
      5 C          -6.0429    0.6295    0.6676 C.3     1  UNL1        0.0136
      6 C          -3.6726    0.8772   -1.2231 C.ar    1  UNL1       -0.0400
      7 C          -2.5087    1.1604   -1.9381 C.ar    1  UNL1       -0.0508
      8 C          -1.2559    0.8067   -1.4150 C.ar    1  UNL1        0.0011
      9 C          -0.0667    1.0749   -2.1011 C.ar    1  UNL1       -0.0434
     10 C           1.1622    0.7026   -1.5462 C.ar    1  UNL1        0.0011
     11 C           2.3773    0.9562   -2.2000 C.ar    1  UNL1       -0.0508
     12 C           3.5829    0.5685   -1.6150 C.ar    1  UNL1       -0.0400
     13 C           3.5969   -0.0817   -0.3786 C.ar    1  UNL1        0.0317
     14 N           4.8131   -0.4669    0.2225 N.pl3   1  UNL1       -0.3297
     15 C           6.0513   -0.7660   -0.4402 C.3     1  UNL1        0.0136
     16 C           6.5004   -1.4113    0.8746 C.3     1  UNL1       -0.0214
     17 C           5.0057   -1.5053    1.1962 C.3     1  UNL1        0.0136
     18 C           2.3699   -0.3122    0.2619 C.ar    1  UNL1       -0.0147
     19 C           1.1525    0.0607   -0.2958 C.ar    1  UNL1        0.0734
     20 N           0.0124   -0.2004    0.3698 N.ar    1  UNL1       -0.2466
     21 C          -1.1662    0.1606   -0.1699 C.ar    1  UNL1        0.0734
     22 C          -2.3437   -0.1093    0.5177 C.ar    1  UNL1       -0.0147
     23 H          -4.5685   -1.2343    2.4967 H       1  UNL1        0.0464
     24 H          -4.4110    0.5440    2.7430 H       1  UNL1        0.0464
     25 H          -6.9148    0.5348    2.7244 H       1  UNL1        0.0295
     26 H          -6.9538   -1.0197    1.8425 H       1  UNL1        0.0295
     27 H          -6.6390    0.3502   -0.2039 H       1  UNL1        0.0464
     28 H          -5.9443    1.7176    0.7419 H       1  UNL1        0.0464
     29 H          -4.6333    1.1492   -1.6515 H       1  UNL1        0.0636
     30 H          -2.5879    1.6537   -2.9036 H       1  UNL1        0.0625
     31 H          -0.0977    1.5733   -3.0668 H       1  UNL1        0.0631
     32 H           2.3946    1.4588   -3.1639 H       1  UNL1        0.0625
     33 H           4.5132    0.7848   -2.1327 H       1  UNL1        0.0636
     34 H           5.9283   -1.4598   -1.2785 H       1  UNL1        0.0464
     35 H           6.6097    0.1213   -0.7466 H       1  UNL1        0.0464
     36 H           7.0283   -2.3635    0.7817 H       1  UNL1        0.0295
     37 H           7.0633   -0.7432    1.5360 H       1  UNL1        0.0295
     38 H           4.5293   -2.4493    0.9115 H       1  UNL1        0.0464
     39 H           4.7205   -1.2138    2.2095 H       1  UNL1        0.0464
     40 H           2.3511   -0.7975    1.2341 H       1  UNL1        0.0657
     41 H          -2.2631   -0.6194    1.4739 H       1  UNL1        0.0657
@<TRIPOS>BOND
     1     1     2    1
     2     2     3    1
     3     3     4    1
     4     4     5    1
     5     1     6   ar
     6     6     7   ar
     7     7     8   ar
     8     8     9   ar
     9     9    10   ar
    10    10    11   ar
    11    11    12   ar
    12    12    13   ar
    13    13    14    1
    14    14    15    1
    15    15    16    1
    16    16    17    1
    17    13    18   ar
    18    10    19   ar
    19    19    20   ar
    20     8    21   ar
    21    21    22   ar
    22    22     1   ar
    23     5     2    1
    24    17    14    1
    25    19    18   ar
    26    21    20   ar
    27     3    23    1
    28     3    24    1
    29     4    25    1
    30     4    26    1
    31     5    27    1
    32     5    28    1
    33     6    29    1
    34     7    30    1
    35     9    31    1
    36    11    32    1
    37    12    33    1
    38    15    34    1
    39    15    35    1
    40    16    36    1
    41    16    37    1
    42    17    38    1
    43    17    39    1
    44    18    40    1
    45    22    41    1
