@<TRIPOS>MOLECULE
*****
 34 37 0 0 0
SMALL
GASTEIGER

@<TRIPOS>ATOM
      1 C          -0.7070   -0.8263   -0.6443 C.ar    1  UNL1        0.0000
      2 N           0.7251   -0.8782   -0.7770 N.ar    1  UNL1        0.0000
      3 B           1.5363    0.1536   -0.0291 B       1  UNL1        0.0000
      4 C           3.0836    0.2380   -0.0874 C.ar    1  UNL1        0.0000
      5 C           3.8401   -0.6814    0.6051 C.ar    1  UNL1        0.0000
      6 C           5.2355   -0.6469    0.5837 C.ar    1  UNL1        0.0000
      7 C           5.8456    0.3491   -0.1617 C.ar    1  UNL1        0.0000
      8 C           5.1206    1.2768   -0.8602 C.ar    1  UNL1        0.0000
      9 C           3.7404    1.2104   -0.8149 C.ar    1  UNL1        0.0000
     10 C           0.7426    1.1846    0.8219 C.ar    1  UNL1        0.0000
     11 C          -0.6061    1.1375    0.8725 C.ar    1  UNL1        0.0000
     12 C          -1.3491    0.1184    0.1300 C.ar    1  UNL1        0.0000
     13 C          -2.7081    0.1002    0.2037 C.ar    1  UNL1        0.0000
     14 C          -3.4158    1.0121    0.9566 C.ar    1  UNL1        0.0000
     15 C          -4.8119    0.9790    1.0212 C.ar    1  UNL1        0.0000
     16 C          -5.5405    0.0411    0.3407 C.ar    1  UNL1        0.0000
     17 C          -4.8567   -0.8779   -0.4163 C.ar    1  UNL1        0.0000
     18 C          -3.4668   -0.8479   -0.4828 C.ar    1  UNL1        0.0000
     19 C          -2.8249   -1.7996   -1.2625 C.ar    1  UNL1        0.0000
     20 C          -1.4588   -1.7809   -1.3361 C.ar    1  UNL1        0.0000
     21 H           1.2030   -1.5894   -1.3595 H       1  UNL1        0.0000
     22 H           3.3693   -1.4497    1.1801 H       1  UNL1        0.0000
     23 H           5.8304   -1.3747    1.1318 H       1  UNL1        0.0000
     24 H           6.9431    0.3582   -0.1649 H       1  UNL1        0.0000
     25 H           5.6589    2.0263   -1.4209 H       1  UNL1        0.0000
     26 H           3.1532    1.9296   -1.3565 H       1  UNL1        0.0000
     27 H           1.3132    1.9284    1.3620 H       1  UNL1        0.0000
     28 H          -1.0235    1.8879    1.4815 H       1  UNL1        0.0000
     29 H          -2.8622    1.7484    1.4920 H       1  UNL1        0.0000
     30 H          -5.2984    1.7245    1.6308 H       1  UNL1        0.0000
     31 H          -6.6450    0.0232    0.3981 H       1  UNL1        0.0000
     32 H          -5.4043   -1.6237   -0.9595 H       1  UNL1        0.0000
     33 H          -3.4104   -2.5336   -1.7940 H       1  UNL1        0.0000
     34 H          -0.9514   -2.5172   -1.9401 H       1  UNL1        0.0000
@<TRIPOS>BOND
     1     1     2   ar
     2     2     3   ar
     3     3     4    1
     4     4     5   ar
     5     5     6   ar
     6     6     7   ar
     7     7     8   ar
     8     8     9   ar
     9     3    10   ar
    10    10    11   ar
    11     1    12   ar
    12    12    13   ar
    13    13    14   ar
    14    14    15   ar
    15    15    16   ar
    16    16    17   ar
    17    13    18   ar
    18    18    19   ar
    19    19    20   ar
    20    20     1   ar
    21     9     4   ar
    22    12    11   ar
    23    18    17   ar
    24     2    21    1
    25     5    22    1
    26     6    23    1
    27     7    24    1
    28     8    25    1
    29     9    26    1
    30    10    27    1
    31    11    28    1
    32    14    29    1
    33    15    30    1
    34    16    31    1
    35    17    32    1
    36    19    33    1
    37    20    34    1
