@<TRIPOS>MOLECULE
*****
 18 20 0 0 0
SMALL
GASTEIGER

@<TRIPOS>ATOM
      1 C          -1.2321   -0.4712    0.3247 C.ar    1  UNL1        0.1356
      2 O          -2.5315   -0.7869    0.5767 O.2     1  UNL1       -0.4629
      3 C          -3.2839    0.2465    0.1146 C.ar    1  UNL1        0.0931
      4 C          -2.4843    1.2247   -0.4323 C.ar    1  UNL1       -0.0160
      5 C          -1.1470    0.7685   -0.3011 C.ar    1  UNL1        0.0236
      6 C           0.1242    1.2526   -0.6351 C.ar    1  UNL1       -0.0080
      7 C           1.2321    0.4712   -0.3247 C.ar    1  UNL1        0.1356
      8 O           2.5315    0.7869   -0.5767 O.2     1  UNL1       -0.4629
      9 C           3.2839   -0.2465   -0.1146 C.ar    1  UNL1        0.0931
     10 C           2.4843   -1.2247    0.4323 C.ar    1  UNL1       -0.0160
     11 C           1.1470   -0.7685    0.3011 C.ar    1  UNL1        0.0236
     12 C          -0.1242   -1.2526    0.6351 C.ar    1  UNL1       -0.0080
     13 H          -4.3517    0.1391    0.2456 H       1  UNL1        0.1029
     14 H          -2.8237    2.1519   -0.8712 H       1  UNL1        0.0655
     15 H           0.2516    2.2125   -1.1242 H       1  UNL1        0.0661
     16 H           4.3517   -0.1391   -0.2456 H       1  UNL1        0.1029
     17 H           2.8237   -2.1519    0.8712 H       1  UNL1        0.0655
     18 H          -0.2516   -2.2125    1.1242 H       1  UNL1        0.0661
@<TRIPOS>BOND
     1     1     2   ar
     2     2     3   ar
     3     3     4   ar
     4     1     5   ar
     5     5     6   ar
     6     6     7   ar
     7     7     8   ar
     8     8     9   ar
     9     9    10   ar
    10     7    11   ar
    11    11    12   ar
    12    12     1   ar
    13     5     4   ar
    14    11    10   ar
    15     3    13    1
    16     4    14    1
    17     6    15    1
    18     9    16    1
    19    10    17    1
    20    12    18    1
