@<TRIPOS>MOLECULE
*****
 44 50 0 0 0
SMALL
GASTEIGER

@<TRIPOS>ATOM
      1 C           6.4157   -0.1314    0.1951 C.ar    1  UNL1        0.0094
      2 N           5.6591    0.1366    1.3163 N.ar    1  UNL1       -0.3659
      3 C           4.3198    0.1914    0.9891 C.ar    1  UNL1        0.0100
      4 C           4.2169   -0.0289   -0.3637 C.ar    1  UNL1        0.0085
      5 C           3.0650   -0.0816   -1.1568 C.ar    1  UNL1        0.0074
      6 C           3.3889   -0.3776   -2.5048 C.ar    1  UNL1       -0.0520
      7 C           4.7308   -0.5881   -2.9841 C.ar    1  UNL1       -0.0605
      8 C           5.8852   -0.5301   -2.1697 C.ar    1  UNL1       -0.0526
      9 C           5.5419   -0.2446   -0.8547 C.ar    1  UNL1        0.0000
     10 C           1.7198    0.1353   -0.6663 C.ar    1  UNL1        0.0481
     11 C           1.1898    1.1354    0.1369 C.ar    1  UNL1       -0.0280
     12 C          -0.2019    0.8884    0.3234 C.ar    1  UNL1        0.0091
     13 C          -0.4639   -0.2598   -0.3819 C.ar    1  UNL1        0.0620
     14 N           0.6765   -0.7089   -0.9763 N.ar    1  UNL1       -0.3532
     15 C          -1.8793   -0.8768   -0.4337 C.ar    1  UNL1        0.0450
     16 S          -2.2407   -2.2805   -1.2838 S.2     1  UNL1       -0.0860
     17 C          -3.8867   -2.2084   -0.8110 C.ar    1  UNL1        0.0234
     18 C          -4.8809   -3.1282   -1.1717 C.ar    1  UNL1       -0.0292
     19 C          -6.1439   -2.8843   -0.6815 C.ar    1  UNL1        0.0286
     20 N          -6.4527   -1.8398    0.1001 N.ar    1  UNL1       -0.2626
     21 C          -5.4823   -0.9569    0.4421 C.ar    1  UNL1        0.0364
     22 C          -4.1511   -1.0962    0.0037 C.ar    1  UNL1        0.0157
     23 C          -2.9407   -0.2882    0.2329 C.ar    1  UNL1        0.0081
     24 C          -2.6292    0.9297    0.9674 C.ar    1  UNL1       -0.0083
     25 C          -3.6185    1.6344    1.6886 C.ar    1  UNL1       -0.0534
     26 C          -3.3294    2.8069    2.3984 C.ar    1  UNL1       -0.0611
     27 C          -2.0404    3.3223    2.4156 C.ar    1  UNL1       -0.0611
     28 C          -1.0256    2.6699    1.7224 C.ar    1  UNL1       -0.0534
     29 C          -1.2925    1.4886    1.0012 C.ar    1  UNL1       -0.0081
     30 H           7.4913   -0.2197    0.2622 H       1  UNL1        0.0813
     31 H           6.0306    0.2637    2.2486 H       1  UNL1        0.1648
     32 H           3.5780    0.3753    1.7540 H       1  UNL1        0.0813
     33 H           2.5842   -0.4323   -3.2381 H       1  UNL1        0.0624
     34 H           4.8622   -0.8017   -4.0455 H       1  UNL1        0.0618
     35 H           6.8870   -0.6916   -2.5400 H       1  UNL1        0.0624
     36 H           1.7564    1.9648    0.5395 H       1  UNL1        0.0645
     37 H           0.7513   -1.5458   -1.5379 H       1  UNL1        0.1659
     38 H          -4.6710   -3.9845   -1.8007 H       1  UNL1        0.0644
     39 H          -6.9705   -3.5497   -0.9146 H       1  UNL1        0.0830
     40 H          -5.8332   -0.1535    1.0738 H       1  UNL1        0.0836
     41 H          -4.6446    1.3005    1.7240 H       1  UNL1        0.0624
     42 H          -4.1223    3.3179    2.9399 H       1  UNL1        0.0618
     43 H          -1.8238    4.2329    2.9677 H       1  UNL1        0.0618
     44 H          -0.0255    3.0953    1.7509 H       1  UNL1        0.0624
@<TRIPOS>BOND
     1     1     2   ar
     2     2     3   ar
     3     3     4   ar
     4     4     5   ar
     5     5     6   ar
     6     6     7   ar
     7     7     8   ar
     8     8     9   ar
     9     5    10    1
    10    10    11   ar
    11    11    12   ar
    12    12    13   ar
    13    13    14   ar
    14    13    15   ar
    15    15    16   ar
    16    16    17   ar
    17    17    18   ar
    18    18    19   ar
    19    19    20   ar
    20    20    21   ar
    21    21    22   ar
    22    22    23   ar
    23    23    24   ar
    24    24    25   ar
    25    25    26   ar
    26    26    27   ar
    27    27    28   ar
    28    28    29   ar
    29     9     1   ar
    30    14    10   ar
    31    23    15   ar
    32    29    24   ar
    33     9     4   ar
    34    29    12   ar
    35    22    17   ar
    36     1    30    1
    37     2    31    1
    38     3    32    1
    39     6    33    1
    40     7    34    1
    41     8    35    1
    42    11    36    1
    43    14    37    1
    44    18    38    1
    45    19    39    1
    46    21    40    1
    47    25    41    1
    48    26    42    1
    49    27    43    1
    50    28    44    1
