@<TRIPOS>MOLECULE
*****
 43 47 0 0 0
SMALL
GASTEIGER

@<TRIPOS>ATOM
      1 SI          2.7740   -0.9631   -0.3861 Si      1  UNL1        0.0000
      2 C           1.5332    0.2829    0.3115 C.2     1  UNL1        0.0000
      3 C           2.1615    1.2389    1.0270 C.2     1  UNL1        0.0000
      4 C           3.6108    1.1187    1.0978 C.2     1  UNL1        0.0000
      5 C           4.1417    0.0663    0.4394 C.2     1  UNL1        0.0000
      6 C           5.5534   -0.2930    0.3528 C.ar    1  UNL1        0.0000
      7 C           6.3292   -0.4153    1.5094 C.ar    1  UNL1        0.0000
      8 C           7.6748   -0.7649    1.4135 C.ar    1  UNL1        0.0000
      9 C           8.2096   -0.9813    0.1550 C.ar    1  UNL1        0.0000
     10 N           7.5018   -0.8695   -0.9881 N.ar    1  UNL1        0.0000
     11 C           6.1971   -0.5243   -0.8626 C.ar    1  UNL1        0.0000
     12 C           0.0967    0.1647    0.0923 C.ar    1  UNL1        0.0000
     13 C          -0.7650   -0.0079    1.1807 C.ar    1  UNL1        0.0000
     14 C          -2.1460   -0.1175    0.9849 C.ar    1  UNL1        0.0000
     15 C          -2.7016   -0.0473   -0.3010 C.ar    1  UNL1        0.0000
     16 C          -1.8309    0.1286   -1.3863 C.ar    1  UNL1        0.0000
     17 C          -0.4489    0.2384   -1.1934 C.ar    1  UNL1        0.0000
     18 C          -4.1374   -0.1669   -0.5116 C.ar    1  UNL1        0.0000
     19 C          -4.7615   -1.1663   -1.3093 C.ar    1  UNL1        0.0000
     20 C          -6.1851   -1.2838   -1.5124 C.ar    1  UNL1        0.0000
     21 C          -7.1445   -0.4138   -0.9463 C.ar    1  UNL1        0.0000
     22 C          -6.5155    0.5571   -0.1804 C.ar    1  UNL1        0.0000
     23 C          -7.1154    1.5774    0.5071 C.ar    1  UNL1        0.0000
     24 O          -6.1576    2.3354    1.1242 O.2     1  UNL1        0.0000
     25 C          -4.9395    1.7880    0.8222 C.ar    1  UNL1        0.0000
     26 C          -5.1095    0.6809    0.0298 C.ar    1  UNL1        0.0000
     27 H           2.8677   -0.9088   -1.8686 H       1  UNL1        0.0000
     28 H           2.6433   -2.3117    0.2218 H       1  UNL1        0.0000
     29 H           1.6537    2.0586    1.5220 H       1  UNL1        0.0000
     30 H           4.1922    1.8517    1.6450 H       1  UNL1        0.0000
     31 H           5.8909   -0.2492    2.4904 H       1  UNL1        0.0000
     32 H           8.2893   -0.8676    2.3007 H       1  UNL1        0.0000
     33 H           9.2527   -1.2572    0.0294 H       1  UNL1        0.0000
     34 H           5.6745   -0.4250   -1.8105 H       1  UNL1        0.0000
     35 H          -0.3687   -0.0688    2.1921 H       1  UNL1        0.0000
     36 H          -2.7883   -0.2687    1.8507 H       1  UNL1        0.0000
     37 H          -2.2272    0.1980   -2.3978 H       1  UNL1        0.0000
     38 H           0.1894    0.3971   -2.0598 H       1  UNL1        0.0000
     39 H          -4.1268   -1.9082   -1.7977 H       1  UNL1        0.0000
     40 H          -6.5395   -2.0996   -2.1442 H       1  UNL1        0.0000
     41 H          -8.2086   -0.5085   -1.1066 H       1  UNL1        0.0000
     42 H          -8.1347    1.9034    0.6567 H       1  UNL1        0.0000
     43 H          -4.0854    2.3020    1.2400 H       1  UNL1        0.0000
@<TRIPOS>BOND
     1     1     2    1
     2     2     3    2
     3     3     4    1
     4     4     5    2
     5     5     6    1
     6     6     7   ar
     7     7     8   ar
     8     8     9   ar
     9     9    10   ar
    10    10    11   ar
    11     2    12    1
    12    12    13   ar
    13    13    14   ar
    14    14    15   ar
    15    15    16   ar
    16    16    17   ar
    17    15    18    1
    18    18    19   ar
    19    19    20   ar
    20    20    21   ar
    21    21    22   ar
    22    22    23   ar
    23    23    24   ar
    24    24    25   ar
    25    25    26   ar
    26     5     1    1
    27    11     6   ar
    28    17    12   ar
    29    26    18   ar
    30    26    22   ar
    31     1    27    1
    32     1    28    1
    33     3    29    1
    34     4    30    1
    35     7    31    1
    36     8    32    1
    37     9    33    1
    38    11    34    1
    39    13    35    1
    40    14    36    1
    41    16    37    1
    42    17    38    1
    43    19    39    1
    44    20    40    1
    45    21    41    1
    46    23    42    1
    47    25    43    1
