@<TRIPOS>MOLECULE
*****
 47 54 0 0 0
SMALL
GASTEIGER

@<TRIPOS>ATOM
      1 C          -5.9811    0.4698    1.8251 C.ar    1  UNL1        0.0094
      2 N          -4.8820    0.7827    2.5971 N.ar    1  UNL1       -0.3659
      3 C          -3.7224    0.6243    1.8665 C.ar    1  UNL1        0.0100
      4 C          -4.0836    0.1979    0.6107 C.ar    1  UNL1        0.0071
      5 C          -3.2482   -0.0844   -0.4773 C.ar    1  UNL1       -0.0081
      6 C          -4.0270   -0.4735   -1.6017 C.ar    1  UNL1       -0.0534
      7 C          -5.4653   -0.5596   -1.6108 C.ar    1  UNL1       -0.0605
      8 C          -6.2848   -0.2673   -0.4977 C.ar    1  UNL1       -0.0526
      9 C          -5.5090    0.1105    0.5894 C.ar    1  UNL1       -0.0000
     10 C          -1.8043   -0.0166   -0.4553 C.ar    1  UNL1       -0.0075
     11 C          -0.9781   -0.8318    0.3641 C.ar    1  UNL1       -0.0449
     12 C           0.4788   -0.7838    0.3859 C.ar    1  UNL1       -0.0049
     13 C           1.3338   -1.5873    1.1967 C.ar    1  UNL1       -0.0023
     14 C           0.8671   -2.5359    2.0849 C.ar    1  UNL1       -0.0160
     15 S           2.1383   -3.3473    2.9247 S.2     1  UNL1       -0.1038
     16 C           3.3543   -2.4413    2.1117 C.ar    1  UNL1       -0.0159
     17 C           2.7592   -1.5699    1.2472 C.ar    1  UNL1        0.0011
     18 C           3.4351   -0.6469    0.3931 C.ar    1  UNL1        0.0382
     19 C           4.7916   -0.3641    0.1858 C.ar    1  UNL1        0.0466
     20 C           6.0384   -0.7846    0.6481 C.ar    1  UNL1        0.0389
     21 N           7.1747   -0.2202    0.1606 N.ar    1  UNL1       -0.2624
     22 C           7.0865    0.7524   -0.7769 C.ar    1  UNL1        0.0311
     23 C           5.9050    1.2416   -1.3024 C.ar    1  UNL1       -0.0006
     24 C           4.7700    0.6417   -0.7803 C.ar    1  UNL1        0.1392
     25 O           3.4898    0.9549   -1.1412 O.2     1  UNL1       -0.4541
     26 C           2.6490    0.1539   -0.4124 C.ar    1  UNL1        0.1452
     27 C           1.2435    0.1196   -0.4459 C.ar    1  UNL1        0.0348
     28 C           0.4057    0.9105   -1.2421 C.ar    1  UNL1        0.0112
     29 C           0.7691    1.8821   -2.1443 C.ar    1  UNL1        0.0101
     30 N          -0.3865    2.4053   -2.6803 N.ar    1  UNL1       -0.3659
     31 C          -1.4865    1.7832   -2.1357 C.ar    1  UNL1        0.0100
     32 C          -1.0279    0.8419   -1.2445 C.ar    1  UNL1        0.0078
     33 H          -6.9805    0.5412    2.2318 H       1  UNL1        0.0813
     34 H          -4.9199    1.0932    3.5591 H       1  UNL1        0.1648
     35 H          -2.7605    0.8394    2.3119 H       1  UNL1        0.0813
     36 H          -3.5047   -0.7337   -2.5240 H       1  UNL1        0.0624
     37 H          -5.9476   -0.8728   -2.5373 H       1  UNL1        0.0618
     38 H          -7.3627   -0.3334   -0.5138 H       1  UNL1        0.0624
     39 H          -1.4853   -1.5451    1.0137 H       1  UNL1        0.0630
     40 H          -0.1507   -2.8212    2.3093 H       1  UNL1        0.0700
     41 H           4.3946   -2.6213    2.3333 H       1  UNL1        0.0700
     42 H           6.1820   -1.5555    1.3943 H       1  UNL1        0.0837
     43 H           8.0426    1.1481   -1.1115 H       1  UNL1        0.0831
     44 H           5.8634    2.0191   -2.0505 H       1  UNL1        0.0670
     45 H           1.7324    2.2610   -2.4572 H       1  UNL1        0.0813
     46 H          -0.4215    3.1463   -3.3682 H       1  UNL1        0.1648
     47 H          -2.4849    2.0768   -2.4309 H       1  UNL1        0.0813
@<TRIPOS>BOND
     1     1     2   ar
     2     2     3   ar
     3     3     4   ar
     4     4     5   ar
     5     5     6   ar
     6     6     7   ar
     7     7     8   ar
     8     8     9   ar
     9     5    10    1
    10    10    11   ar
    11    11    12   ar
    12    12    13   ar
    13    13    14   ar
    14    14    15   ar
    15    15    16   ar
    16    16    17   ar
    17    17    18   ar
    18    18    19   ar
    19    19    20   ar
    20    20    21   ar
    21    21    22   ar
    22    22    23   ar
    23    23    24   ar
    24    24    25   ar
    25    25    26   ar
    26    26    27   ar
    27    27    28   ar
    28    28    29   ar
    29    29    30   ar
    30    30    31   ar
    31    31    32   ar
    32     9     1   ar
    33    32    10   ar
    34     9     4   ar
    35    27    12   ar
    36    32    28   ar
    37    17    13   ar
    38    26    18   ar
    39    24    19   ar
    40     1    33    1
    41     2    34    1
    42     3    35    1
    43     6    36    1
    44     7    37    1
    45     8    38    1
    46    11    39    1
    47    14    40    1
    48    16    41    1
    49    20    42    1
    50    22    43    1
    51    23    44    1
    52    29    45    1
    53    30    46    1
    54    31    47    1
