@<TRIPOS>MOLECULE
*****
 41 47 0 0 0
SMALL
GASTEIGER

@<TRIPOS>ATOM
      1 C          -6.5203   -1.6830   -0.5929 C.ar    1  UNL1        0.0094
      2 N          -5.4717   -2.5229   -0.8742 N.ar    1  UNL1       -0.3659
      3 C          -4.2708   -1.8764   -0.6566 C.ar    1  UNL1        0.0100
      4 C          -4.5347   -0.5951   -0.2266 C.ar    1  UNL1        0.0076
      5 C          -3.6585    0.4547    0.1264 C.ar    1  UNL1       -0.0021
      6 C          -4.4294    1.5991    0.5102 C.ar    1  UNL1       -0.0529
      7 C          -5.8662    1.6774    0.5357 C.ar    1  UNL1       -0.0605
      8 C          -6.7148    0.6167    0.1791 C.ar    1  UNL1       -0.0526
      9 C          -5.9718   -0.4925   -0.1929 C.ar    1  UNL1        0.0000
     10 C          -2.1832    0.4733    0.1334 C.ar    1  UNL1        0.0211
     11 C          -1.3527    1.5292    0.4884 C.ar    1  UNL1       -0.0391
     12 C           0.0502    1.2460    0.3940 C.ar    1  UNL1       -0.0082
     13 C           1.1812    2.0464    0.6634 C.ar    1  UNL1       -0.0275
     14 C           2.4786    1.5767    0.5064 C.ar    1  UNL1        0.0723
     15 N           3.4659    2.4324    0.7942 N.ar    1  UNL1       -0.2543
     16 C           4.7431    2.0193    0.6562 C.ar    1  UNL1        0.0360
     17 C           5.1329    0.7590    0.2333 C.ar    1  UNL1        0.0030
     18 C           6.5201    0.4571    0.1326 C.ar    1  UNL1       -0.0504
     19 C           7.0200   -0.7824   -0.2832 C.ar    1  UNL1       -0.0329
     20 C           6.0512   -1.7507   -0.6088 C.ar    1  UNL1        0.1005
     21 N           6.3273   -2.9952   -1.0265 N.ar    1  UNL1       -0.1908
     22 S           4.8714   -3.7410   -1.2777 S.2     1  UNL1        0.1165
     23 N           3.8314   -2.5218   -0.8689 N.ar    1  UNL1       -0.1901
     24 C           4.5690   -1.4546   -0.5102 C.ar    1  UNL1        0.1082
     25 C           4.0822   -0.1562   -0.0746 C.ar    1  UNL1        0.0209
     26 C           2.7039    0.2595    0.0643 C.ar    1  UNL1        0.0113
     27 C           1.5720   -0.5538   -0.2094 C.ar    1  UNL1       -0.0376
     28 C           0.2675   -0.0500   -0.0409 C.ar    1  UNL1        0.0206
     29 S          -1.2125   -0.8642   -0.3151 S.2     1  UNL1       -0.0882
     30 H          -7.5437   -2.0139   -0.7045 H       1  UNL1        0.0813
     31 H          -5.5612   -3.4782   -1.1950 H       1  UNL1        0.1648
     32 H          -3.3605   -2.4247   -0.8402 H       1  UNL1        0.0813
     33 H          -3.9113    2.5079    0.8156 H       1  UNL1        0.0624
     34 H          -6.3191    2.6179    0.8512 H       1  UNL1        0.0618
     35 H          -7.7930    0.6791    0.1995 H       1  UNL1        0.0624
     36 H          -1.7200    2.4943    0.8122 H       1  UNL1        0.0635
     37 H           1.0369    3.0687    1.0065 H       1  UNL1        0.0645
     38 H           5.4758    2.7821    0.9127 H       1  UNL1        0.0836
     39 H           7.2517    1.2258    0.3911 H       1  UNL1        0.0625
     40 H           8.0810   -0.9894   -0.3522 H       1  UNL1        0.0640
     41 H           1.6821   -1.5766   -0.5527 H       1  UNL1        0.0636
@<TRIPOS>BOND
     1     1     2   ar
     2     2     3   ar
     3     3     4   ar
     4     4     5   ar
     5     5     6   ar
     6     6     7   ar
     7     7     8   ar
     8     8     9   ar
     9     5    10    1
    10    10    11   ar
    11    11    12   ar
    12    12    13   ar
    13    13    14   ar
    14    14    15   ar
    15    15    16   ar
    16    16    17   ar
    17    17    18   ar
    18    18    19   ar
    19    19    20   ar
    20    20    21   ar
    21    21    22   ar
    22    22    23   ar
    23    23    24   ar
    24    24    25   ar
    25    25    26   ar
    26    26    27   ar
    27    27    28   ar
    28    28    29   ar
    29     9     1   ar
    30    29    10   ar
    31     9     4   ar
    32    28    12   ar
    33    26    14   ar
    34    25    17   ar
    35    24    20   ar
    36     1    30    1
    37     2    31    1
    38     3    32    1
    39     6    33    1
    40     7    34    1
    41     8    35    1
    42    11    36    1
    43    13    37    1
    44    16    38    1
    45    18    39    1
    46    19    40    1
    47    27    41    1
