@<TRIPOS>MOLECULE
*****
 49 56 0 0 0
SMALL
GASTEIGER

@<TRIPOS>ATOM
      1 C          -6.3415    2.3089   -0.8375 C.ar    1  UNL1        0.0094
      2 N          -5.1853    2.8951   -1.3084 N.ar    1  UNL1       -0.3659
      3 C          -4.0922    2.1097   -1.0063 C.ar    1  UNL1        0.0100
      4 C          -4.5540    1.0083   -0.3259 C.ar    1  UNL1        0.0071
      5 C          -3.8118   -0.0686    0.1745 C.ar    1  UNL1       -0.0081
      6 C          -4.6776   -1.0108    0.7947 C.ar    1  UNL1       -0.0534
      7 C          -6.1086   -0.8699    0.8872 C.ar    1  UNL1       -0.0605
      8 C          -6.8331    0.2279    0.3711 C.ar    1  UNL1       -0.0526
      9 C          -5.9731    1.1366   -0.2298 C.ar    1  UNL1       -0.0000
     10 C          -2.3741   -0.1946    0.0941 C.ar    1  UNL1       -0.0075
     11 C          -1.4563    0.6832    0.7292 C.ar    1  UNL1       -0.0456
     12 C          -0.0211    0.5741    0.6775 C.ar    1  UNL1       -0.0147
     13 C           0.7594    1.5115    1.3529 C.ar    1  UNL1       -0.0533
     14 C           2.1604    1.4563    1.3381 C.ar    1  UNL1       -0.0514
     15 C           2.8276    0.4367    0.6306 C.ar    1  UNL1        0.0086
     16 C           2.0549   -0.5176   -0.0553 C.ar    1  UNL1        0.0559
     17 N           2.9375   -1.3956   -0.6562 N.ar    1  UNL1       -0.3536
     18 C           4.2479   -1.0634   -0.4007 C.ar    1  UNL1        0.0481
     19 C           5.4547   -1.6779   -0.8122 C.ar    1  UNL1       -0.0372
     20 C           6.6969   -1.1459   -0.4169 C.ar    1  UNL1       -0.0515
     21 C           6.5892   -0.0081    0.3816 C.ar    1  UNL1       -0.0102
     22 C           7.7029    0.6447    0.8598 C.ar    1  UNL1       -0.0166
     23 S           7.2812    2.0175    1.8183 S.2     1  UNL1       -0.1039
     24 C           5.5909    1.7472    1.5994 C.ar    1  UNL1       -0.0160
     25 C           5.4081    0.6433    0.8197 C.ar    1  UNL1       -0.0011
     26 C           4.1651    0.0667    0.3928 C.ar    1  UNL1        0.0156
     27 C           0.6482   -0.4700   -0.0466 C.ar    1  UNL1        0.0152
     28 C          -0.2621   -1.3381   -0.6767 C.ar    1  UNL1        0.0097
     29 C          -0.0152   -2.4402   -1.4635 C.ar    1  UNL1        0.0101
     30 N          -1.2325   -2.9546   -1.8638 N.ar    1  UNL1       -0.3659
     31 C          -2.2585   -2.2022   -1.3482 C.ar    1  UNL1        0.0100
     32 C          -1.6918   -1.1981   -0.6007 C.ar    1  UNL1        0.0078
     33 H          -7.3019    2.7824   -0.9876 H       1  UNL1        0.0813
     34 H          -5.1438    3.7721   -1.8106 H       1  UNL1        0.1648
     35 H          -3.0989    2.4105   -1.3112 H       1  UNL1        0.0813
     36 H          -4.2323   -1.9018    1.2406 H       1  UNL1        0.0624
     37 H          -6.6634   -1.6621    1.3909 H       1  UNL1        0.0618
     38 H          -7.9062    0.3251    0.4444 H       1  UNL1        0.0624
     39 H          -1.8850    1.5041    1.3090 H       1  UNL1        0.0630
     40 H           0.2863    2.3160    1.9135 H       1  UNL1        0.0624
     41 H           2.7130    2.2134    1.8827 H       1  UNL1        0.0624
     42 H           2.6638   -2.1860   -1.2141 H       1  UNL1        0.1659
     43 H           5.4299   -2.5671   -1.4378 H       1  UNL1        0.0638
     44 H           7.6343   -1.5970   -0.7180 H       1  UNL1        0.0624
     45 H           8.7462    0.4045    0.7088 H       1  UNL1        0.0699
     46 H           4.8799    2.4151    2.0573 H       1  UNL1        0.0700
     47 H           0.8831   -2.9290   -1.8009 H       1  UNL1        0.0813
     48 H          -1.3527   -3.7636   -2.4593 H       1  UNL1        0.1648
     49 H          -3.2886   -2.4491   -1.5685 H       1  UNL1        0.0813
@<TRIPOS>BOND
     1     1     2   ar
     2     2     3   ar
     3     3     4   ar
     4     4     5   ar
     5     5     6   ar
     6     6     7   ar
     7     7     8   ar
     8     8     9   ar
     9     5    10    1
    10    10    11   ar
    11    11    12   ar
    12    12    13   ar
    13    13    14   ar
    14    14    15   ar
    15    15    16   ar
    16    16    17   ar
    17    17    18   ar
    18    18    19   ar
    19    19    20   ar
    20    20    21   ar
    21    21    22   ar
    22    22    23   ar
    23    23    24   ar
    24    24    25   ar
    25    25    26   ar
    26    16    27   ar
    27    27    28   ar
    28    28    29   ar
    29    29    30   ar
    30    30    31   ar
    31    31    32   ar
    32     9     1   ar
    33    32    10   ar
    34     9     4   ar
    35    27    12   ar
    36    32    28   ar
    37    26    15   ar
    38    26    18   ar
    39    25    21   ar
    40     1    33    1
    41     2    34    1
    42     3    35    1
    43     6    36    1
    44     7    37    1
    45     8    38    1
    46    11    39    1
    47    13    40    1
    48    14    41    1
    49    17    42    1
    50    19    43    1
    51    20    44    1
    52    22    45    1
    53    24    46    1
    54    29    47    1
    55    30    48    1
    56    31    49    1
