@<TRIPOS>MOLECULE
*****
 46 52 0 0 0
SMALL
GASTEIGER

@<TRIPOS>ATOM
      1 C          -6.0204    0.5443    1.1728 C.ar    1  UNL1        0.0094
      2 N          -5.0586    0.2610    2.1208 N.ar    1  UNL1       -0.3659
      3 C          -3.8174    0.1549    1.5277 C.ar    1  UNL1        0.0100
      4 C          -3.9894    0.3726    0.1823 C.ar    1  UNL1        0.0071
      5 C          -3.0140    0.3607   -0.8212 C.ar    1  UNL1       -0.0082
      6 C          -3.6007    0.6322   -2.0863 C.ar    1  UNL1       -0.0534
      7 C          -5.0052    0.8768   -2.2935 C.ar    1  UNL1       -0.0605
      8 C          -5.9730    0.8802   -1.2623 C.ar    1  UNL1       -0.0526
      9 C          -5.3780    0.6167   -0.0358 C.ar    1  UNL1       -0.0000
     10 C          -1.5904    0.1220   -0.5960 C.ar    1  UNL1       -0.0089
     11 C          -0.7839    1.2394   -0.3573 C.ar    1  UNL1       -0.0442
     12 C           0.5868    1.1252   -0.1320 C.ar    1  UNL1        0.0025
     13 C           1.3154    2.2831    0.1007 C.ar    1  UNL1        0.0361
     14 N           2.6297    2.3508    0.3335 N.ar    1  UNL1       -0.2532
     15 C           3.2890    1.1632    0.3375 C.ar    1  UNL1        0.0863
     16 C           4.7091    1.0686    0.5737 C.ar    1  UNL1        0.0152
     17 C           5.6704    2.0804    0.8323 C.ar    1  UNL1       -0.0515
     18 C           7.0138    1.7529    1.0339 C.ar    1  UNL1       -0.0611
     19 C           7.4218    0.4282    0.9828 C.ar    1  UNL1       -0.0607
     20 C           6.4981   -0.5888    0.7303 C.ar    1  UNL1       -0.0473
     21 C           5.1455   -0.2484    0.5283 C.ar    1  UNL1        0.0220
     22 S           3.8506   -1.3114    0.2078 S.2     1  UNL1       -0.0860
     23 C           2.6537   -0.0667    0.1145 C.ar    1  UNL1        0.0470
     24 C           1.2205   -0.1424   -0.1400 C.ar    1  UNL1        0.0071
     25 C           0.3962   -1.3263   -0.3910 C.ar    1  UNL1       -0.0084
     26 C           0.8773   -2.6638   -0.4343 C.ar    1  UNL1       -0.0534
     27 C           0.0628   -3.7751   -0.6748 C.ar    1  UNL1       -0.0611
     28 C          -1.2874   -3.5995   -0.8856 C.ar    1  UNL1       -0.0611
     29 C          -1.8109   -2.3128   -0.8554 C.ar    1  UNL1       -0.0534
     30 C          -1.0078   -1.1687   -0.6151 C.ar    1  UNL1       -0.0095
     31 H          -7.0571    0.6627    1.4564 H       1  UNL1        0.0813
     32 H          -5.2372    0.1451    3.1098 H       1  UNL1        0.1648
     33 H          -2.9411   -0.0691    2.1213 H       1  UNL1        0.0813
     34 H          -2.9514    0.6550   -2.9630 H       1  UNL1        0.0624
     35 H          -5.3401    1.0716   -3.3130 H       1  UNL1        0.0618
     36 H          -7.0242    1.0647   -1.4288 H       1  UNL1        0.0624
     37 H          -1.2566    2.2227   -0.3454 H       1  UNL1        0.0630
     38 H           0.8271    3.2565    0.1067 H       1  UNL1        0.0836
     39 H           5.3511    3.1196    0.8724 H       1  UNL1        0.0624
     40 H           7.7369    2.5405    1.2307 H       1  UNL1        0.0618
     41 H           8.4682    0.1772    1.1401 H       1  UNL1        0.0618
     42 H           6.8206   -1.6255    0.6908 H       1  UNL1        0.0629
     43 H           1.9215   -2.8953   -0.2805 H       1  UNL1        0.0624
     44 H           0.4960   -4.7716   -0.6943 H       1  UNL1        0.0618
     45 H          -1.9350   -4.4510   -1.0724 H       1  UNL1        0.0618
     46 H          -2.8824   -2.2125   -1.0236 H       1  UNL1        0.0624
@<TRIPOS>BOND
     1     1     2   ar
     2     2     3   ar
     3     3     4   ar
     4     4     5   ar
     5     5     6   ar
     6     6     7   ar
     7     7     8   ar
     8     8     9   ar
     9     5    10    1
    10    10    11   ar
    11    11    12   ar
    12    12    13   ar
    13    13    14   ar
    14    14    15   ar
    15    15    16   ar
    16    16    17   ar
    17    17    18   ar
    18    18    19   ar
    19    19    20   ar
    20    20    21   ar
    21    21    22   ar
    22    22    23   ar
    23    23    24   ar
    24    24    25   ar
    25    25    26   ar
    26    26    27   ar
    27    27    28   ar
    28    28    29   ar
    29    29    30   ar
    30     9     1   ar
    31    30    10   ar
    32     9     4   ar
    33    24    12   ar
    34    30    25   ar
    35    23    15   ar
    36    21    16   ar
    37     1    31    1
    38     2    32    1
    39     3    33    1
    40     6    34    1
    41     7    35    1
    42     8    36    1
    43    11    37    1
    44    13    38    1
    45    17    39    1
    46    18    40    1
    47    19    41    1
    48    20    42    1
    49    26    43    1
    50    27    44    1
    51    28    45    1
    52    29    46    1
