@<TRIPOS>MOLECULE
*****
 42 48 0 0 0
SMALL
GASTEIGER

@<TRIPOS>ATOM
      1 C          -5.8427    1.8613    1.2575 C.ar    1  UNL1        0.0094
      2 N          -4.6709    2.0934    1.9451 N.ar    1  UNL1       -0.3659
      3 C          -3.6651    1.2752    1.4695 C.ar    1  UNL1        0.0100
      4 C          -4.1987    0.5141    0.4558 C.ar    1  UNL1        0.0085
      5 C          -3.5818   -0.4785   -0.3166 C.ar    1  UNL1        0.0075
      6 C          -4.5055   -1.0791   -1.2072 C.ar    1  UNL1       -0.0520
      7 C          -5.8899   -0.6975   -1.3115 C.ar    1  UNL1       -0.0605
      8 C          -6.4967    0.3156   -0.5343 C.ar    1  UNL1       -0.0526
      9 C          -5.5769    0.8775    0.3414 C.ar    1  UNL1        0.0000
     10 C          -2.1834   -0.8456   -0.2317 C.ar    1  UNL1        0.0496
     11 C          -1.5786   -2.0982   -0.2305 C.ar    1  UNL1       -0.0103
     12 C          -0.1794   -1.9131   -0.1685 C.ar    1  UNL1        0.0911
     13 N           0.8374   -2.8053   -0.1335 N.ar    1  UNL1       -0.2527
     14 C           2.1226   -2.3523   -0.0811 C.ar    1  UNL1        0.0381
     15 C           2.4828   -0.9964   -0.0645 C.ar    1  UNL1        0.0282
     16 C           1.4690   -0.0559   -0.1016 C.ar    1  UNL1        0.0747
     17 N           1.9729    1.2133   -0.0840 N.ar    1  UNL1       -0.3524
     18 C           3.3535    1.1536   -0.0302 C.ar    1  UNL1        0.0483
     19 C           4.3410    2.1765    0.0073 C.ar    1  UNL1       -0.0371
     20 C           5.7171    1.8556    0.0604 C.ar    1  UNL1       -0.0490
     21 C           5.9420    0.4846    0.0693 C.ar    1  UNL1        0.0206
     22 C           7.1655   -0.1386    0.1162 C.ar    1  UNL1        0.0994
     23 O           7.0014   -1.5042    0.1100 O.2     1  UNL1       -0.4698
     24 C           5.6512   -1.7601    0.0582 C.ar    1  UNL1        0.1000
     25 C           5.0107   -0.5623    0.0336 C.ar    1  UNL1        0.0296
     26 C           3.6367   -0.2099   -0.0192 C.ar    1  UNL1        0.0196
     27 C           0.0283   -0.5561   -0.1551 C.ar    1  UNL1        0.0897
     28 N          -1.1643    0.0889   -0.2016 N.ar    1  UNL1       -0.3513
     29 H          -6.7452    2.4043    1.5030 H       1  UNL1        0.0813
     30 H          -4.5696    2.7516    2.7069 H       1  UNL1        0.1648
     31 H          -2.6852    1.3027    1.9250 H       1  UNL1        0.0813
     32 H          -4.1532   -1.8727   -1.8673 H       1  UNL1        0.0624
     33 H          -6.5073   -1.2280   -2.0374 H       1  UNL1        0.0618
     34 H          -7.5388    0.5879   -0.6171 H       1  UNL1        0.0624
     35 H          -2.0912   -3.0495   -0.2606 H       1  UNL1        0.0660
     36 H           2.8720   -3.1367   -0.0543 H       1  UNL1        0.0836
     37 H           1.4325    2.0655   -0.1083 H       1  UNL1        0.1660
     38 H           4.0403    3.2220   -0.0052 H       1  UNL1        0.0638
     39 H           6.4915    2.6107    0.0896 H       1  UNL1        0.0625
     40 H           8.1912    0.1998    0.1553 H       1  UNL1        0.1035
     41 H           5.3707   -2.8024    0.0474 H       1  UNL1        0.1036
     42 H          -1.3064    1.0883   -0.2273 H       1  UNL1        0.1660
@<TRIPOS>BOND
     1     1     2   ar
     2     2     3   ar
     3     3     4   ar
     4     4     5   ar
     5     5     6   ar
     6     6     7   ar
     7     7     8   ar
     8     8     9   ar
     9     5    10    1
    10    10    11   ar
    11    11    12   ar
    12    12    13   ar
    13    13    14   ar
    14    14    15   ar
    15    15    16   ar
    16    16    17   ar
    17    17    18   ar
    18    18    19   ar
    19    19    20   ar
    20    20    21   ar
    21    21    22   ar
    22    22    23   ar
    23    23    24   ar
    24    24    25   ar
    25    25    26   ar
    26    16    27   ar
    27    27    28   ar
    28     9     1   ar
    29    28    10   ar
    30     9     4   ar
    31    27    12   ar
    32    26    15   ar
    33    26    18   ar
    34    25    21   ar
    35     1    29    1
    36     2    30    1
    37     3    31    1
    38     6    32    1
    39     7    33    1
    40     8    34    1
    41    11    35    1
    42    14    36    1
    43    17    37    1
    44    19    38    1
    45    20    39    1
    46    22    40    1
    47    24    41    1
    48    28    42    1
