@<TRIPOS>MOLECULE
*****
 48 55 0 0 0
SMALL
GASTEIGER

@<TRIPOS>ATOM
      1 C          -6.5954    1.5916   -0.1590 C.ar    1  UNL1        0.0094
      2 N          -5.5971    2.2830    0.4949 N.ar    1  UNL1       -0.3659
      3 C          -4.3859    1.6416    0.3348 C.ar    1  UNL1        0.0100
      4 C          -4.6140    0.5204   -0.4267 C.ar    1  UNL1        0.0071
      5 C          -3.6837   -0.4360   -0.8522 C.ar    1  UNL1       -0.0081
      6 C          -4.3238   -1.4198   -1.6534 C.ar    1  UNL1       -0.0534
      7 C          -5.7312   -1.4312   -1.9621 C.ar    1  UNL1       -0.0605
      8 C          -6.6516   -0.4584   -1.5110 C.ar    1  UNL1       -0.0526
      9 C          -6.0064    0.4994   -0.7412 C.ar    1  UNL1       -0.0000
     10 C          -2.2716   -0.4190   -0.5434 C.ar    1  UNL1       -0.0070
     11 C          -1.2590   -0.2396   -1.5147 C.ar    1  UNL1       -0.0274
     12 C           0.1367   -0.2139   -1.2802 C.ar    1  UNL1        0.0728
     13 N           0.8927   -0.1032   -2.3721 N.ar    1  UNL1       -0.2542
     14 C           2.2470   -0.0880   -2.2525 C.ar    1  UNL1        0.0380
     15 C           2.9760   -0.0745   -1.0700 C.ar    1  UNL1        0.0275
     16 C           4.4225   -0.0038   -1.1398 C.ar    1  UNL1        0.0808
     17 N           5.0530   -0.0571   -2.3347 N.ar    1  UNL1       -0.2543
     18 C           6.4069    0.0058   -2.3945 C.ar    1  UNL1        0.0283
     19 C           7.2310    0.1322   -1.2940 C.ar    1  UNL1       -0.0430
     20 C           6.6319    0.2031   -0.0496 C.ar    1  UNL1       -0.0504
     21 C           5.2238    0.1327    0.0283 C.ar    1  UNL1        0.0118
     22 C           4.4387    0.2342    1.1888 C.ar    1  UNL1        0.0296
     23 C           4.8708    0.4989    2.4624 C.ar    1  UNL1        0.1000
     24 O           3.7938    0.6552    3.2826 O.2     1  UNL1       -0.4698
     25 C           2.6743    0.4786    2.5206 C.ar    1  UNL1        0.1000
     26 C           3.0167    0.1332    1.2360 C.ar    1  UNL1        0.0289
     27 C           2.1669   -0.1077    0.1194 C.ar    1  UNL1        0.0061
     28 C           0.7229   -0.3102    0.0176 C.ar    1  UNL1        0.0171
     29 C          -0.2862   -0.6386    0.9889 C.ar    1  UNL1       -0.0005
     30 C          -0.0288   -1.1483    2.2410 C.ar    1  UNL1       -0.0159
     31 S          -1.4588   -1.4281    3.1482 S.2     1  UNL1       -0.1038
     32 C          -2.4546   -1.0288    1.8148 C.ar    1  UNL1       -0.0160
     33 C          -1.7098   -0.6719    0.7128 C.ar    1  UNL1       -0.0024
     34 H          -7.6152    1.9509   -0.1474 H       1  UNL1        0.0813
     35 H          -5.7314    3.1420    1.0122 H       1  UNL1        0.1648
     36 H          -3.4872    2.0503    0.7765 H       1  UNL1        0.0813
     37 H          -3.7168   -2.2296   -2.0622 H       1  UNL1        0.0624
     38 H          -6.1059   -2.2437   -2.5857 H       1  UNL1        0.0618
     39 H          -7.7046   -0.4739   -1.7508 H       1  UNL1        0.0624
     40 H          -1.5781   -0.1076   -2.5520 H       1  UNL1        0.0645
     41 H           2.7536   -0.0508   -3.2174 H       1  UNL1        0.0836
     42 H           6.8223   -0.0499   -3.3976 H       1  UNL1        0.0830
     43 H           8.3079    0.1799   -1.4070 H       1  UNL1        0.0633
     44 H           7.2418    0.3140    0.8411 H       1  UNL1        0.0625
     45 H           5.8334    0.6508    2.9300 H       1  UNL1        0.1036
     46 H           1.7492    0.6644    3.0463 H       1  UNL1        0.1036
     47 H           0.9121   -1.4100    2.6989 H       1  UNL1        0.0700
     48 H          -3.5289   -1.1187    1.9086 H       1  UNL1        0.0700
@<TRIPOS>BOND
     1     1     2   ar
     2     2     3   ar
     3     3     4   ar
     4     4     5   ar
     5     5     6   ar
     6     6     7   ar
     7     7     8   ar
     8     8     9   ar
     9     5    10    1
    10    10    11   ar
    11    11    12   ar
    12    12    13   ar
    13    13    14   ar
    14    14    15   ar
    15    15    16   ar
    16    16    17   ar
    17    17    18   ar
    18    18    19   ar
    19    19    20   ar
    20    20    21   ar
    21    21    22   ar
    22    22    23   ar
    23    23    24   ar
    24    24    25   ar
    25    25    26   ar
    26    26    27   ar
    27    27    28   ar
    28    28    29   ar
    29    29    30   ar
    30    30    31   ar
    31    31    32   ar
    32    32    33   ar
    33     9     1   ar
    34    33    10   ar
    35     9     4   ar
    36    28    12   ar
    37    33    29   ar
    38    27    15   ar
    39    21    16   ar
    40    26    22   ar
    41     1    34    1
    42     2    35    1
    43     3    36    1
    44     6    37    1
    45     7    38    1
    46     8    39    1
    47    11    40    1
    48    14    41    1
    49    18    42    1
    50    19    43    1
    51    20    44    1
    52    23    45    1
    53    25    46    1
    54    30    47    1
    55    32    48    1
