@<TRIPOS>MOLECULE
*****
 44 51 0 0 0
SMALL
GASTEIGER

@<TRIPOS>ATOM
      1 C           6.6865    0.7430   -1.1730 C.ar    1  UNL1        0.0094
      2 N           5.6497    1.4076   -1.7928 N.ar    1  UNL1       -0.3659
      3 C           4.4381    0.9913   -1.2789 C.ar    1  UNL1        0.0100
      4 C           4.7030    0.0543   -0.3082 C.ar    1  UNL1        0.0076
      5 C           3.7996   -0.6630    0.4860 C.ar    1  UNL1       -0.0020
      6 C           4.4833   -1.5613    1.3457 C.ar    1  UNL1       -0.0529
      7 C           5.9155   -1.7068    1.3874 C.ar    1  UNL1       -0.0605
      8 C           6.8135   -0.9737    0.5782 C.ar    1  UNL1       -0.0526
      9 C           6.1225   -0.1041   -0.2552 C.ar    1  UNL1        0.0000
     10 C           2.3565   -0.4833    0.4414 C.ar    1  UNL1        0.0241
     11 C           1.6373    0.6930    0.5811 C.ar    1  UNL1       -0.0039
     12 C           0.2634    0.4140    0.4611 C.ar    1  UNL1        0.1439
     13 O          -0.8574    1.2165    0.5165 O.2     1  UNL1       -0.4536
     14 C          -1.9268    0.3705    0.3286 C.ar    1  UNL1        0.1457
     15 C          -1.4413   -0.8978    0.1674 C.ar    1  UNL1        0.0459
     16 C          -2.3083   -1.9769   -0.0439 C.ar    1  UNL1        0.0323
     17 C          -2.1105   -3.3057   -0.2314 C.ar    1  UNL1        0.1001
     18 O          -3.3489   -3.8789   -0.3885 O.2     1  UNL1       -0.4698
     19 C          -4.2888   -2.8790   -0.2933 C.ar    1  UNL1        0.1000
     20 C          -3.6815   -1.6621   -0.0764 C.ar    1  UNL1        0.0284
     21 C          -4.2984   -0.3907    0.0777 C.ar    1  UNL1       -0.0030
     22 C          -5.7229   -0.1472    0.0314 C.ar    1  UNL1       -0.0526
     23 C          -6.3002    1.1300    0.1885 C.ar    1  UNL1       -0.0529
     24 C          -5.3455    2.1284    0.3930 C.ar    1  UNL1       -0.0102
     25 C          -5.7017    3.4431    0.5686 C.ar    1  UNL1       -0.0166
     26 S          -4.3219    4.4383    0.7974 S.2     1  UNL1       -0.1039
     27 C          -3.2452    3.1039    0.6611 C.ar    1  UNL1       -0.0159
     28 C          -3.9136    1.9204    0.4451 C.ar    1  UNL1        0.0004
     29 C          -3.3080    0.6611    0.2921 C.ar    1  UNL1        0.0339
     30 C          -0.0596   -0.8940    0.2481 C.ar    1  UNL1        0.0663
     31 S           1.3537   -1.8767    0.1853 S.2     1  UNL1       -0.0843
     32 H           7.7130    0.9362   -1.4532 H       1  UNL1        0.0813
     33 H           5.7600    2.0949   -2.5270 H       1  UNL1        0.1648
     34 H           3.5148    1.4012   -1.6647 H       1  UNL1        0.0813
     35 H           3.8997   -2.1794    2.0290 H       1  UNL1        0.0624
     36 H           6.3308   -2.4294    2.0910 H       1  UNL1        0.0618
     37 H           7.8865   -1.0932    0.6167 H       1  UNL1        0.0624
     38 H           2.0701    1.6686    0.7560 H       1  UNL1        0.0666
     39 H          -1.2650   -3.9763   -0.2834 H       1  UNL1        0.1036
     40 H          -5.3118   -3.2104   -0.4019 H       1  UNL1        0.1036
     41 H          -6.3977   -0.9867   -0.1329 H       1  UNL1        0.0624
     42 H          -7.3698    1.2929    0.1508 H       1  UNL1        0.0624
     43 H          -6.6892    3.8837    0.5771 H       1  UNL1        0.0699
     44 H          -2.1833    3.2837    0.7505 H       1  UNL1        0.0700
@<TRIPOS>BOND
     1     1     2   ar
     2     2     3   ar
     3     3     4   ar
     4     4     5   ar
     5     5     6   ar
     6     6     7   ar
     7     7     8   ar
     8     8     9   ar
     9     5    10    1
    10    10    11   ar
    11    11    12   ar
    12    12    13   ar
    13    13    14   ar
    14    14    15   ar
    15    15    16   ar
    16    16    17   ar
    17    17    18   ar
    18    18    19   ar
    19    19    20   ar
    20    20    21   ar
    21    21    22   ar
    22    22    23   ar
    23    23    24   ar
    24    24    25   ar
    25    25    26   ar
    26    26    27   ar
    27    27    28   ar
    28    28    29   ar
    29    15    30   ar
    30    30    31   ar
    31     9     1   ar
    32    31    10   ar
    33     9     4   ar
    34    30    12   ar
    35    29    14   ar
    36    20    16   ar
    37    29    21   ar
    38    28    24   ar
    39     1    32    1
    40     2    33    1
    41     3    34    1
    42     6    35    1
    43     7    36    1
    44     8    37    1
    45    11    38    1
    46    17    39    1
    47    19    40    1
    48    22    41    1
    49    23    42    1
    50    25    43    1
    51    27    44    1
