@<TRIPOS>MOLECULE
*****
 48 54 0 0 0
SMALL
GASTEIGER

@<TRIPOS>ATOM
      1 C          -7.3856   -0.1253   -2.5569 C.ar    1  UNL1        0.0094
      2 N          -6.2886   -0.6584   -3.2001 N.ar    1  UNL1       -0.3659
      3 C          -5.1534   -0.4842   -2.4358 C.ar    1  UNL1        0.0100
      4 C          -5.5296    0.1606   -1.2815 C.ar    1  UNL1        0.0071
      5 C          -4.7179    0.5615   -0.2118 C.ar    1  UNL1       -0.0088
      6 C          -5.4997    1.2390    0.7650 C.ar    1  UNL1       -0.0534
      7 C          -6.9193    1.4650    0.6651 C.ar    1  UNL1       -0.0605
      8 C          -7.7151    1.0444   -0.4236 C.ar    1  UNL1       -0.0526
      9 C          -6.9362    0.3939   -1.3705 C.ar    1  UNL1       -0.0000
     10 C          -3.2838    0.3282   -0.1050 C.ar    1  UNL1       -0.0172
     11 C          -2.7567   -0.9700   -0.0934 C.ar    1  UNL1       -0.0534
     12 C          -1.3784   -1.1893    0.0214 C.ar    1  UNL1       -0.0534
     13 C          -0.4789   -0.1173    0.1291 C.ar    1  UNL1       -0.0157
     14 C          -1.0102    1.1808    0.1232 C.ar    1  UNL1       -0.0534
     15 C          -2.3889    1.3997    0.0099 C.ar    1  UNL1       -0.0534
     16 C           0.9618   -0.3563    0.2681 C.ar    1  UNL1        0.0103
     17 C           1.4967   -1.2219    1.2557 C.ar    1  UNL1       -0.0513
     18 C           2.8774   -1.4770    1.4211 C.ar    1  UNL1       -0.0507
     19 C           3.8622   -0.8897    0.6067 C.ar    1  UNL1        0.0190
     20 C           5.2837   -1.1301    0.7833 C.ar    1  UNL1        0.0489
     21 S           5.9589   -2.6254    0.2586 S.2     1  UNL1       -0.0922
     22 C           7.5449   -2.1742    0.7375 C.ar    1  UNL1        0.0038
     23 C           7.5598   -0.9215    1.2950 C.ar    1  UNL1        0.0968
     24 N           8.6937   -0.3330    1.7676 N.ar    1  UNL1       -0.2514
     25 C           8.4168    0.9034    2.2682 C.ar    1  UNL1        0.0464
     26 C           7.1468    1.4941    2.3079 C.ar    1  UNL1        0.0464
     27 N           5.9991    0.9214    1.8514 N.ar    1  UNL1       -0.2508
     28 C           6.2506   -0.3146    1.3284 C.ar    1  UNL1        0.1040
     29 C           3.4096   -0.0106   -0.4159 C.ar    1  UNL1        0.1087
     30 N           4.1677    0.6402   -1.3175 N.ar    1  UNL1       -0.1901
     31 S           3.1374    1.5190   -2.2679 S.2     1  UNL1        0.1165
     32 N           1.6774    1.1097   -1.6054 N.ar    1  UNL1       -0.1901
     33 C           1.9256    0.2637   -0.5884 C.ar    1  UNL1        0.1082
     34 H          -8.3656   -0.1628   -3.0121 H       1  UNL1        0.0813
     35 H          -6.3096   -1.1036   -4.1082 H       1  UNL1        0.1648
     36 H          -4.1933   -0.8293   -2.7949 H       1  UNL1        0.0813
     37 H          -4.9985    1.6078    1.6614 H       1  UNL1        0.0624
     38 H          -7.4065    1.9947    1.4843 H       1  UNL1        0.0618
     39 H          -8.7783    1.2214   -0.4919 H       1  UNL1        0.0624
     40 H          -3.4233   -1.8269   -0.1707 H       1  UNL1        0.0624
     41 H          -1.0139   -2.2145    0.0155 H       1  UNL1        0.0624
     42 H          -0.3519    2.0438    0.2061 H       1  UNL1        0.0624
     43 H          -2.7593    2.4229   -0.0011 H       1  UNL1        0.0624
     44 H           0.8082   -1.7133    1.9462 H       1  UNL1        0.0624
     45 H           3.1843   -2.1494    2.2229 H       1  UNL1        0.0625
     46 H           8.3799   -2.8437    0.5914 H       1  UNL1        0.0715
     47 H           9.2778    1.4392    2.6583 H       1  UNL1        0.0845
     48 H           7.0221    2.4881    2.7286 H       1  UNL1        0.0845
@<TRIPOS>BOND
     1     1     2   ar
     2     2     3   ar
     3     3     4   ar
     4     4     5   ar
     5     5     6   ar
     6     6     7   ar
     7     7     8   ar
     8     8     9   ar
     9     5    10    1
    10    10    11   ar
    11    11    12   ar
    12    12    13   ar
    13    13    14   ar
    14    14    15   ar
    15    13    16    1
    16    16    17   ar
    17    17    18   ar
    18    18    19   ar
    19    19    20    1
    20    20    21   ar
    21    21    22   ar
    22    22    23   ar
    23    23    24   ar
    24    24    25   ar
    25    25    26   ar
    26    26    27   ar
    27    27    28   ar
    28    19    29   ar
    29    29    30   ar
    30    30    31   ar
    31    31    32   ar
    32    32    33   ar
    33     9     1   ar
    34    15    10   ar
    35    33    16   ar
    36     9     4   ar
    37    28    20   ar
    38    33    29   ar
    39    28    23   ar
    40     1    34    1
    41     2    35    1
    42     3    36    1
    43     6    37    1
    44     7    38    1
    45     8    39    1
    46    11    40    1
    47    12    41    1
    48    14    42    1
    49    15    43    1
    50    17    44    1
    51    18    45    1
    52    22    46    1
    53    25    47    1
    54    26    48    1
