@<TRIPOS>MOLECULE
*****
 50 56 0 0 0
SMALL
GASTEIGER

@<TRIPOS>ATOM
      1 C           6.1959   -1.2585   -1.6047 C.ar    1  UNL1        0.0094
      2 N           5.1177   -1.9784   -2.0748 N.ar    1  UNL1       -0.3659
      3 C           3.9499   -1.5242   -1.4975 C.ar    1  UNL1        0.0100
      4 C           4.2855   -0.5055   -0.6378 C.ar    1  UNL1        0.0071
      5 C           3.4320    0.2669    0.1612 C.ar    1  UNL1       -0.0087
      6 C           4.1825    1.2430    0.8739 C.ar    1  UNL1       -0.0534
      7 C           5.6120    1.4008    0.7863 C.ar    1  UNL1       -0.0605
      8 C           6.4501    0.6047   -0.0260 C.ar    1  UNL1       -0.0526
      9 C           5.7017   -0.3369   -0.7185 C.ar    1  UNL1       -0.0000
     10 C           1.9880    0.1036    0.2534 C.ar    1  UNL1       -0.0166
     11 C           1.4203   -1.0654    0.7277 C.ar    1  UNL1       -0.0534
     12 C           0.0313   -1.1889    0.8017 C.ar    1  UNL1       -0.0528
     13 C          -0.8777   -0.1824    0.3816 C.ar    1  UNL1       -0.0090
     14 C          -0.3076    1.0654    0.0165 C.ar    1  UNL1       -0.0090
     15 C           1.1153    1.1503   -0.0734 C.ar    1  UNL1       -0.0457
     16 C          -1.1574    2.1919   -0.2136 C.ar    1  UNL1       -0.0096
     17 C          -0.6591    3.4650   -0.6188 C.ar    1  UNL1       -0.0534
     18 C          -1.4701    4.5854   -0.7888 C.ar    1  UNL1       -0.0611
     19 C          -2.8220    4.4743   -0.5587 C.ar    1  UNL1       -0.0611
     20 C          -3.3460    3.2416   -0.1714 C.ar    1  UNL1       -0.0534
     21 C          -2.5516    2.0707    0.0094 C.ar    1  UNL1       -0.0096
     22 C          -3.1145    0.7972    0.3666 C.ar    1  UNL1       -0.0090
     23 C          -4.4841    0.6617    0.6943 C.ar    1  UNL1       -0.0528
     24 C          -5.0893   -0.5628    0.9520 C.ar    1  UNL1       -0.0534
     25 C          -4.3747   -1.7356    0.7911 C.ar    1  UNL1       -0.0173
     26 C          -5.0488   -2.9628    0.9310 C.ar    1  UNL1       -0.0540
     27 C          -4.4059   -4.1671    0.6741 C.ar    1  UNL1       -0.0612
     28 C          -3.0921   -4.1476    0.2438 C.ar    1  UNL1       -0.0611
     29 C          -2.4184   -2.9259    0.1244 C.ar    1  UNL1       -0.0534
     30 C          -3.0011   -1.6713    0.4565 C.ar    1  UNL1       -0.0096
     31 C          -2.3123   -0.3742    0.4002 C.ar    1  UNL1       -0.0019
     32 H           7.1970   -1.4714   -1.9533 H       1  UNL1        0.0813
     33 H           5.1729   -2.7263   -2.7536 H       1  UNL1        0.1648
     34 H           2.9996   -1.9677   -1.7623 H       1  UNL1        0.0813
     35 H           3.6474    1.9163    1.5457 H       1  UNL1        0.0624
     36 H           6.0727    2.1848    1.3881 H       1  UNL1        0.0618
     37 H           7.5208    0.7319   -0.0873 H       1  UNL1        0.0624
     38 H           2.0485   -1.8868    1.0652 H       1  UNL1        0.0624
     39 H          -0.3337   -2.0996    1.2706 H       1  UNL1        0.0624
     40 H           1.5889    2.0733   -0.3966 H       1  UNL1        0.0630
     41 H           0.3973    3.6193   -0.8168 H       1  UNL1        0.0624
     42 H          -1.0380    5.5326   -1.0987 H       1  UNL1        0.0618
     43 H          -3.4764    5.3316   -0.6877 H       1  UNL1        0.0618
     44 H          -4.4234    3.2165   -0.0371 H       1  UNL1        0.0624
     45 H          -5.1333    1.5281    0.7783 H       1  UNL1        0.0624
     46 H          -6.1455   -0.5799    1.2116 H       1  UNL1        0.0624
     47 H          -6.0983   -2.9860    1.2185 H       1  UNL1        0.0624
     48 H          -4.9405   -5.1073    0.7722 H       1  UNL1        0.0618
     49 H          -2.5869   -5.0736   -0.0171 H       1  UNL1        0.0618
     50 H          -1.4188   -2.9708   -0.3010 H       1  UNL1        0.0624
@<TRIPOS>BOND
     1     1     2   ar
     2     2     3   ar
     3     3     4   ar
     4     4     5   ar
     5     5     6   ar
     6     6     7   ar
     7     7     8   ar
     8     8     9   ar
     9     5    10    1
    10    10    11   ar
    11    11    12   ar
    12    12    13   ar
    13    13    14   ar
    14    14    15   ar
    15    14    16   ar
    16    16    17   ar
    17    17    18   ar
    18    18    19   ar
    19    19    20   ar
    20    20    21   ar
    21    21    22   ar
    22    22    23   ar
    23    23    24   ar
    24    24    25   ar
    25    25    26   ar
    26    26    27   ar
    27    27    28   ar
    28    28    29   ar
    29    29    30   ar
    30    30    31   ar
    31     9     1   ar
    32    15    10   ar
    33    21    16   ar
    34    31    22   ar
    35     9     4   ar
    36    31    13   ar
    37    30    25   ar
    38     1    32    1
    39     2    33    1
    40     3    34    1
    41     6    35    1
    42     7    36    1
    43     8    37    1
    44    11    38    1
    45    12    39    1
    46    15    40    1
    47    17    41    1
    48    18    42    1
    49    19    43    1
    50    20    44    1
    51    23    45    1
    52    24    46    1
    53    26    47    1
    54    27    48    1
    55    28    49    1
    56    29    50    1
