@<TRIPOS>MOLECULE
*****
 41 46 0 0 0
SMALL
GASTEIGER

@<TRIPOS>ATOM
      1 C          -6.1288   -1.2609    0.9375 C.ar    1  UNL1        0.0094
      2 N          -5.1254   -2.1320    1.3059 N.ar    1  UNL1       -0.3659
      3 C          -3.8969   -1.6415    0.9126 C.ar    1  UNL1        0.0100
      4 C          -4.1177   -0.4444    0.2738 C.ar    1  UNL1        0.0071
      5 C          -3.1713    0.4240   -0.2866 C.ar    1  UNL1       -0.0087
      6 C          -3.8183    1.5758   -0.8145 C.ar    1  UNL1       -0.0534
      7 C          -5.2408    1.8024   -0.7814 C.ar    1  UNL1       -0.0605
      8 C          -6.1741    0.9070   -0.2134 C.ar    1  UNL1       -0.0526
      9 C          -5.5258   -0.2061    0.3030 C.ar    1  UNL1       -0.0000
     10 C          -1.7340    0.1942   -0.3241 C.ar    1  UNL1       -0.0166
     11 C          -1.1900   -0.9003   -1.0004 C.ar    1  UNL1       -0.0534
     12 C           0.1948   -1.1080   -1.0420 C.ar    1  UNL1       -0.0527
     13 C           1.1032   -0.2260   -0.4079 C.ar    1  UNL1       -0.0058
     14 C           0.5454    0.8749    0.2669 C.ar    1  UNL1        0.0014
     15 C           1.4186    1.7508    0.8959 C.ar    1  UNL1        0.0360
     16 N           2.7632    1.6213    0.9042 N.ar    1  UNL1       -0.2536
     17 C           3.3241    0.5751    0.2640 C.ar    1  UNL1        0.0836
     18 C           4.7206    0.4247    0.2625 C.ar    1  UNL1        0.0444
     19 C           5.5895    1.3158    0.9002 C.ar    1  UNL1        0.0388
     20 N           6.9381    1.1978    0.9165 N.ar    1  UNL1       -0.2625
     21 C           7.4523    0.1397    0.2655 C.ar    1  UNL1        0.0296
     22 C           6.6798   -0.7973   -0.3953 C.ar    1  UNL1       -0.0175
     23 C           5.3032   -0.6619   -0.4020 C.ar    1  UNL1        0.0759
     24 N           4.5684   -1.5747   -1.0444 N.ar    1  UNL1       -0.2541
     25 C           3.2255   -1.4177   -1.0353 C.ar    1  UNL1        0.0380
     26 C           2.5322   -0.3758   -0.4072 C.ar    1  UNL1        0.0268
     27 C          -0.8485    1.0791    0.3028 C.ar    1  UNL1       -0.0448
     28 H          -7.1623   -1.4779    1.1705 H       1  UNL1        0.0813
     29 H          -5.2680   -3.0017    1.8026 H       1  UNL1        0.1648
     30 H          -2.9929   -2.1923    1.1337 H       1  UNL1        0.0813
     31 H          -3.2040    2.3421   -1.2902 H       1  UNL1        0.0624
     32 H          -5.6175    2.7246   -1.2253 H       1  UNL1        0.0618
     33 H          -7.2390    1.0867   -0.1907 H       1  UNL1        0.0624
     34 H          -1.8461   -1.6033   -1.5117 H       1  UNL1        0.0624
     35 H           0.5454   -1.9802   -1.5878 H       1  UNL1        0.0624
     36 H           1.0528    2.6211    1.4363 H       1  UNL1        0.0836
     37 H           5.2077    2.1826    1.4362 H       1  UNL1        0.0837
     38 H           8.5352    0.0588    0.2874 H       1  UNL1        0.0830
     39 H           7.1477   -1.6323   -0.9048 H       1  UNL1        0.0654
     40 H           2.7068   -2.2014   -1.5797 H       1  UNL1        0.0836
     41 H          -1.2534    1.9372    0.8387 H       1  UNL1        0.0630
@<TRIPOS>BOND
     1     1     2   ar
     2     2     3   ar
     3     3     4   ar
     4     4     5   ar
     5     5     6   ar
     6     6     7   ar
     7     7     8   ar
     8     8     9   ar
     9     5    10    1
    10    10    11   ar
    11    11    12   ar
    12    12    13   ar
    13    13    14   ar
    14    14    15   ar
    15    15    16   ar
    16    16    17   ar
    17    17    18   ar
    18    18    19   ar
    19    19    20   ar
    20    20    21   ar
    21    21    22   ar
    22    22    23   ar
    23    23    24   ar
    24    24    25   ar
    25    25    26   ar
    26    14    27   ar
    27     9     1   ar
    28    27    10   ar
    29     9     4   ar
    30    26    13   ar
    31    26    17   ar
    32    23    18   ar
    33     1    28    1
    34     2    29    1
    35     3    30    1
    36     6    31    1
    37     7    32    1
    38     8    33    1
    39    11    34    1
    40    12    35    1
    41    15    36    1
    42    19    37    1
    43    21    38    1
    44    22    39    1
    45    25    40    1
    46    27    41    1
