@<TRIPOS>MOLECULE
*****
 39 44 0 0 0
SMALL
GASTEIGER

@<TRIPOS>ATOM
      1 SI         -1.5141   -0.7781    0.0102 Si      1  UNL1        0.0000
      2 C          -0.7706    0.9103    0.2842 C.2     1  UNL1        0.0000
      3 C          -1.7290    1.8381    0.4622 C.2     1  UNL1        0.0000
      4 C          -3.1014    1.3470    0.4059 C.2     1  UNL1        0.0000
      5 C          -3.2716    0.0220    0.1827 C.2     1  UNL1        0.0000
      6 C          -4.5088   -0.7697    0.0725 C.ar    1  UNL1        0.0000
      7 C          -4.5789   -2.1579   -0.1614 C.ar    1  UNL1        0.0000
      8 N          -5.6880   -2.9649   -0.2768 N.ar    1  UNL1        0.0000
      9 C          -6.9372   -2.4416   -0.1639 C.ar    1  UNL1        0.0000
     10 C          -7.0544   -1.0609    0.0724 C.ar    1  UNL1        0.0000
     11 N          -8.2044   -0.3813    0.2098 N.ar    1  UNL1        0.0000
     12 S          -7.7842    1.1988    0.4695 S.2     1  UNL1        0.0000
     13 N          -6.1348    1.0894    0.4189 N.ar    1  UNL1        0.0000
     14 C          -5.8128   -0.1996    0.1943 C.ar    1  UNL1        0.0000
     15 C           0.6243    1.1400    0.2957 C.ar    1  UNL1        0.0000
     16 C           1.3406    2.3134    0.4814 C.ar    1  UNL1        0.0000
     17 C           2.7213    2.0025    0.4014 C.ar    1  UNL1        0.0000
     18 C           2.8265    0.6447    0.1681 C.ar    1  UNL1        0.0000
     19 O           1.5505    0.1415    0.1074 O.2     1  UNL1        0.0000
     20 C           3.9729   -0.2044    0.0013 C.ar    1  UNL1        0.0000
     21 S           3.7969   -1.9203   -0.2862 S.2     1  UNL1        0.0000
     22 C           5.5034   -2.2051   -0.3682 C.ar    1  UNL1        0.0000
     23 C           6.1176   -1.0218   -0.1797 C.ar    1  UNL1        0.0000
     24 C           7.4205   -0.4778   -0.1133 C.ar    1  UNL1        0.0000
     25 C           7.2746    0.9028    0.1236 C.ar    1  UNL1        0.0000
     26 N           5.9327    1.2710    0.2125 N.ar    1  UNL1        0.0000
     27 C           5.3004    0.0726    0.0219 C.ar    1  UNL1        0.0000
     28 H          -1.3581   -1.3236   -1.3629 H       1  UNL1        0.0000
     29 H          -1.3081   -1.7480    1.1166 H       1  UNL1        0.0000
     30 H          -1.5480    2.8913    0.6389 H       1  UNL1        0.0000
     31 H          -3.9021    2.0631    0.5448 H       1  UNL1        0.0000
     32 H          -3.6672   -2.7432   -0.2781 H       1  UNL1        0.0000
     33 H          -7.7803   -3.1123   -0.2612 H       1  UNL1        0.0000
     34 H           0.9134    3.2912    0.6563 H       1  UNL1        0.0000
     35 H           3.5239    2.7134    0.5068 H       1  UNL1        0.0000
     36 H           5.9092   -3.1907   -0.5433 H       1  UNL1        0.0000
     37 H           8.3627   -0.9990   -0.2203 H       1  UNL1        0.0000
     38 H           8.0344    1.6656    0.2379 H       1  UNL1        0.0000
     39 H           5.5284    2.1814    0.3747 H       1  UNL1        0.0000
@<TRIPOS>BOND
     1     1     2    1
     2     2     3    2
     3     3     4    1
     4     4     5    2
     5     5     6    1
     6     6     7   ar
     7     7     8   ar
     8     8     9   ar
     9     9    10   ar
    10    10    11   ar
    11    11    12   ar
    12    12    13   ar
    13    13    14   ar
    14     2    15    1
    15    15    16   ar
    16    16    17   ar
    17    17    18   ar
    18    18    19   ar
    19    18    20    1
    20    20    21   ar
    21    21    22   ar
    22    22    23   ar
    23    23    24   ar
    24    24    25   ar
    25    25    26   ar
    26    26    27   ar
    27     5     1    1
    28    14     6   ar
    29    19    15   ar
    30    27    20   ar
    31    14    10   ar
    32    27    23   ar
    33     1    28    1
    34     1    29    1
    35     3    30    1
    36     4    31    1
    37     7    32    1
    38     9    33    1
    39    16    34    1
    40    17    35    1
    41    22    36    1
    42    24    37    1
    43    25    38    1
    44    26    39    1
