@<TRIPOS>MOLECULE
*****
 40 46 0 0 0
SMALL
GASTEIGER

@<TRIPOS>ATOM
      1 C          -6.0417   -0.2960   -1.7761 C.ar    1  UNL1        0.0094
      2 N          -4.9327   -0.1796   -2.5871 N.ar    1  UNL1       -0.3659
      3 C          -3.7987    0.0102   -1.8234 C.ar    1  UNL1        0.0100
      4 C          -4.1856    0.0023   -0.5043 C.ar    1  UNL1        0.0071
      5 C          -3.3838    0.1683    0.6331 C.ar    1  UNL1       -0.0073
      6 C          -4.1880    0.1333    1.8065 C.ar    1  UNL1       -0.0533
      7 C          -5.6165   -0.0546    1.8135 C.ar    1  UNL1       -0.0605
      8 C          -6.4008   -0.2235    0.6509 C.ar    1  UNL1       -0.0526
      9 C          -5.6022   -0.1799   -0.4832 C.ar    1  UNL1       -0.0000
     10 C          -1.9414    0.3545    0.6247 C.ar    1  UNL1        0.0019
     11 C          -1.3548    1.4939    1.1670 C.ar    1  UNL1        0.0360
     12 N          -0.0313    1.7648    1.2239 N.ar    1  UNL1       -0.2532
     13 C           0.7873    0.8138    0.6895 C.ar    1  UNL1        0.0872
     14 C           0.3008   -0.3588    0.1266 C.ar    1  UNL1        0.0394
     15 C          -1.0801   -0.6074    0.0891 C.ar    1  UNL1       -0.0367
     16 S           1.5737   -1.3380   -0.4487 S.2     1  UNL1       -0.0859
     17 C           2.8021   -0.2236    0.0361 C.ar    1  UNL1        0.0347
     18 C           2.2227    0.8975    0.6405 C.ar    1  UNL1        0.0339
     19 C           3.0693    1.9135    1.1010 C.ar    1  UNL1        0.0385
     20 N           4.4144    1.8314    0.9737 N.ar    1  UNL1       -0.2542
     21 C           4.9781    0.7697    0.4003 C.ar    1  UNL1        0.0743
     22 C           6.3778    0.7659    0.3093 C.ar    1  UNL1       -0.0335
     23 C           7.1491   -0.2641   -0.2615 C.ar    1  UNL1       -0.0315
     24 C           6.4231   -1.3595   -0.7705 C.ar    1  UNL1        0.1006
     25 N           6.9584   -2.4418   -1.3532 N.ar    1  UNL1       -0.1908
     26 S           5.6907   -3.4250   -1.7701 S.2     1  UNL1        0.1165
     27 N           4.4125   -2.5203   -1.2318 N.ar    1  UNL1       -0.1901
     28 C           4.9141   -1.3946   -0.6924 C.ar    1  UNL1        0.1101
     29 C           4.2045   -0.3098   -0.0973 C.ar    1  UNL1        0.0429
     30 H          -7.0248   -0.4425   -2.2021 H       1  UNL1        0.0813
     31 H          -4.9485   -0.2182   -3.5980 H       1  UNL1        0.1648
     32 H          -2.8362    0.1350   -2.3007 H       1  UNL1        0.0813
     33 H          -3.6990    0.2427    2.7762 H       1  UNL1        0.0624
     34 H          -6.1214   -0.0684    2.7802 H       1  UNL1        0.0618
     35 H          -7.4720   -0.3614    0.6659 H       1  UNL1        0.0624
     36 H          -1.9793    2.2777    1.5941 H       1  UNL1        0.0836
     37 H          -1.4648   -1.5281   -0.3410 H       1  UNL1        0.0636
     38 H           2.6857    2.8101    1.5793 H       1  UNL1        0.0837
     39 H           6.9090    1.6301    0.7135 H       1  UNL1        0.0640
     40 H           8.2303   -0.2196   -0.3076 H       1  UNL1        0.0640
@<TRIPOS>BOND
     1     1     2   ar
     2     2     3   ar
     3     3     4   ar
     4     4     5   ar
     5     5     6   ar
     6     6     7   ar
     7     7     8   ar
     8     8     9   ar
     9     5    10    1
    10    10    11   ar
    11    11    12   ar
    12    12    13   ar
    13    13    14   ar
    14    14    15   ar
    15    14    16   ar
    16    16    17   ar
    17    17    18   ar
    18    18    19   ar
    19    19    20   ar
    20    20    21   ar
    21    21    22   ar
    22    22    23   ar
    23    23    24   ar
    24    24    25   ar
    25    25    26   ar
    26    26    27   ar
    27    27    28   ar
    28    28    29   ar
    29     9     1   ar
    30    15    10   ar
    31    29    17   ar
    32     9     4   ar
    33    18    13   ar
    34    29    21   ar
    35    28    24   ar
    36     1    30    1
    37     2    31    1
    38     3    32    1
    39     6    33    1
    40     7    34    1
    41     8    35    1
    42    11    36    1
    43    15    37    1
    44    19    38    1
    45    22    39    1
    46    23    40    1
