@<TRIPOS>MOLECULE
*****
 45 50 0 0 0
SMALL
GASTEIGER

@<TRIPOS>ATOM
      1 C          -5.8152   -2.8749   -1.2872 C.ar    1  UNL1        0.0094
      2 N          -4.5138   -3.2786   -1.4407 N.ar    1  UNL1       -0.3659
      3 C          -3.6532   -2.2802   -1.0283 C.ar    1  UNL1        0.0100
      4 C          -4.3967   -1.2032   -0.5967 C.ar    1  UNL1        0.0077
      5 C          -3.9939    0.0543   -0.0827 C.ar    1  UNL1       -0.0000
      6 C          -5.1685    0.8169    0.2177 C.ar    1  UNL1       -0.0528
      7 C          -6.5326    0.3929    0.0346 C.ar    1  UNL1       -0.0605
      8 C          -6.9006   -0.8595   -0.4771 C.ar    1  UNL1       -0.0526
      9 C          -5.7719   -1.6059   -0.7713 C.ar    1  UNL1        0.0000
     10 C          -2.6196    0.5719    0.1386 C.ar    1  UNL1        0.0480
     11 S          -1.2239   -0.3646   -0.2312 S.2     1  UNL1       -0.0823
     12 C          -0.0712    0.8145    0.2574 C.ar    1  UNL1        0.0655
     13 C           1.3719    0.5143    0.1468 C.ar    1  UNL1        0.0797
     14 C           2.3724    1.4023    0.5155 C.ar    1  UNL1       -0.0345
     15 C           3.7140    1.0267    0.3736 C.ar    1  UNL1       -0.0491
     16 C           4.0741   -0.2294   -0.1339 C.ar    1  UNL1        0.0185
     17 C           2.9951   -1.0417   -0.4725 C.ar    1  UNL1        0.0374
     18 N           1.6822   -0.7090   -0.3477 N.ar    1  UNL1       -0.2537
     19 C           5.4918   -0.6318   -0.2861 C.ar    1  UNL1        0.0724
     20 C           5.9065   -1.8686   -0.7854 C.ar    1  UNL1       -0.0356
     21 C           7.2696   -2.1517   -0.8896 C.ar    1  UNL1       -0.0583
     22 C           8.1971   -1.1999   -0.4955 C.ar    1  UNL1       -0.0436
     23 C           7.7199    0.0016   -0.0112 C.ar    1  UNL1        0.0283
     24 N           6.4059    0.2990    0.0992 N.ar    1  UNL1       -0.2549
     25 C          -0.7421    1.9319    0.7062 C.ar    1  UNL1        0.1060
     26 N          -0.1115    3.0546    1.1676 N.ar    1  UNL1       -0.2507
     27 C          -0.9923    4.0106    1.5492 C.ar    1  UNL1        0.0464
     28 C          -2.3774    3.8864    1.4877 C.ar    1  UNL1        0.0464
     29 N          -3.0385    2.7932    1.0382 N.ar    1  UNL1       -0.2508
     30 C          -2.1900    1.7961    0.6396 C.ar    1  UNL1        0.1046
     31 H          -6.6361   -3.5247   -1.5577 H       1  UNL1        0.0813
     32 H          -4.2209   -4.1764   -1.8031 H       1  UNL1        0.1648
     33 H          -2.5949   -2.4741   -1.0985 H       1  UNL1        0.0813
     34 H          -5.0617    1.8203    0.6262 H       1  UNL1        0.0624
     35 H          -7.3215    1.0923    0.3124 H       1  UNL1        0.0618
     36 H          -7.9245   -1.1747   -0.6133 H       1  UNL1        0.0624
     37 H           2.1514    2.3854    0.9132 H       1  UNL1        0.0639
     38 H           4.4839    1.7382    0.6687 H       1  UNL1        0.0625
     39 H           3.1307   -2.0397   -0.8769 H       1  UNL1        0.0836
     40 H           5.2009   -2.6285   -1.0997 H       1  UNL1        0.0639
     41 H           7.6001   -3.1116   -1.2770 H       1  UNL1        0.0619
     42 H           9.2622   -1.3886   -0.5638 H       1  UNL1        0.0633
     43 H           8.3991    0.7850    0.3125 H       1  UNL1        0.0830
     44 H          -0.5423    4.9252    1.9245 H       1  UNL1        0.0845
     45 H          -3.0140    4.7035    1.8148 H       1  UNL1        0.0845
@<TRIPOS>BOND
     1     1     2   ar
     2     2     3   ar
     3     3     4   ar
     4     4     5   ar
     5     5     6   ar
     6     6     7   ar
     7     7     8   ar
     8     8     9   ar
     9     5    10    1
    10    10    11   ar
    11    11    12   ar
    12    12    13    1
    13    13    14   ar
    14    14    15   ar
    15    15    16   ar
    16    16    17   ar
    17    17    18   ar
    18    16    19    1
    19    19    20   ar
    20    20    21   ar
    21    21    22   ar
    22    22    23   ar
    23    23    24   ar
    24    12    25   ar
    25    25    26   ar
    26    26    27   ar
    27    27    28   ar
    28    28    29   ar
    29    29    30   ar
    30     9     1   ar
    31    30    10   ar
    32     9     4   ar
    33    18    13   ar
    34    24    19   ar
    35    30    25   ar
    36     1    31    1
    37     2    32    1
    38     3    33    1
    39     6    34    1
    40     7    35    1
    41     8    36    1
    42    14    37    1
    43    15    38    1
    44    17    39    1
    45    20    40    1
    46    21    41    1
    47    22    42    1
    48    23    43    1
    49    27    44    1
    50    28    45    1
