@<TRIPOS>MOLECULE
*****
 44 50 0 0 0
SMALL
GASTEIGER

@<TRIPOS>ATOM
      1 C          -3.8146   -1.7196   -0.8832 C.ar    1  UNL1        0.0100
      2 N          -3.1624   -2.8620   -1.3278 N.ar    1  UNL1       -0.3659
      3 C          -1.7965   -2.7220   -1.1906 C.ar    1  UNL1        0.0102
      4 C          -1.6366   -1.4824   -0.6563 C.ar    1  UNL1        0.0127
      5 C          -2.8629   -0.8260   -0.4375 C.ar    1  UNL1        0.0080
      6 C          -3.0686    0.4659    0.0927 C.ar    1  UNL1       -0.0053
      7 C          -1.8515    1.1440    0.4233 C.ar    1  UNL1       -0.0293
      8 C          -0.5946    0.5189    0.2233 C.ar    1  UNL1        0.0518
      9 N           0.7123    0.9262    0.4550 N.ar    1  UNL1       -0.3510
     10 C           1.5735   -0.0913    0.0702 C.ar    1  UNL1        0.0945
     11 C           0.8251   -1.1247   -0.3943 C.ar    1  UNL1        0.1620
     12 O           1.6036   -2.1598   -0.7908 O.2     1  UNL1       -0.4526
     13 C           2.8816   -1.7345   -0.5554 C.ar    1  UNL1        0.1384
     14 C           4.0127   -2.5036   -0.8247 C.ar    1  UNL1       -0.0181
     15 C           5.2575   -1.9354   -0.5312 C.ar    1  UNL1       -0.0505
     16 C           5.3718   -0.6453    0.0121 C.ar    1  UNL1       -0.0170
     17 C           6.6255   -0.0863    0.3023 C.ar    1  UNL1       -0.0540
     18 C           6.7299    1.1981    0.8431 C.ar    1  UNL1       -0.0612
     19 C           5.5838    1.9463    1.1033 C.ar    1  UNL1       -0.0611
     20 C           4.3245    1.4155    0.8245 C.ar    1  UNL1       -0.0533
     21 C           4.2068    0.1211    0.2789 C.ar    1  UNL1       -0.0051
     22 C           2.9419   -0.4494   -0.0167 C.ar    1  UNL1        0.0519
     23 C          -0.4952   -0.7538   -0.2988 C.ar    1  UNL1        0.0518
     24 C          -4.3843    1.0628    0.2894 C.ar    1  UNL1        0.0009
     25 C          -4.7526    2.2519   -0.3504 C.ar    1  UNL1       -0.0511
     26 C          -6.0147    2.8029   -0.1358 C.ar    1  UNL1       -0.0430
     27 C          -6.8800    2.1473    0.7232 C.ar    1  UNL1        0.0276
     28 N          -6.5708    1.0037    1.3679 N.ar    1  UNL1       -0.2627
     29 C          -5.3351    0.4941    1.1372 C.ar    1  UNL1        0.0353
     30 H          -4.8938   -1.6653   -0.9381 H       1  UNL1        0.0813
     31 H          -3.6249   -3.6778   -1.7072 H       1  UNL1        0.1648
     32 H          -1.1071   -3.5003   -1.4878 H       1  UNL1        0.0813
     33 H          -1.8942    2.1458    0.8454 H       1  UNL1        0.0644
     34 H           1.0179    1.8099    0.8389 H       1  UNL1        0.1660
     35 H           3.9242   -3.4991   -1.2438 H       1  UNL1        0.0655
     36 H           6.1520   -2.5218   -0.7350 H       1  UNL1        0.0625
     37 H           7.5367   -0.6487    0.1093 H       1  UNL1        0.0624
     38 H           7.7105    1.6142    1.0615 H       1  UNL1        0.0618
     39 H           5.6723    2.9446    1.5243 H       1  UNL1        0.0618
     40 H           3.4453    2.0152    1.0352 H       1  UNL1        0.0624
     41 H          -4.0612    2.7467   -1.0285 H       1  UNL1        0.0625
     42 H          -6.3148    3.7198   -0.6301 H       1  UNL1        0.0633
     43 H          -7.8745    2.5366    0.9214 H       1  UNL1        0.0829
     44 H          -5.1187   -0.4224    1.6816 H       1  UNL1        0.0836
@<TRIPOS>BOND
     1     1     2   ar
     2     2     3   ar
     3     3     4   ar
     4     4     5   ar
     5     5     6   ar
     6     6     7   ar
     7     7     8   ar
     8     8     9   ar
     9     9    10   ar
    10    10    11   ar
    11    11    12   ar
    12    12    13   ar
    13    13    14   ar
    14    14    15   ar
    15    15    16   ar
    16    16    17   ar
    17    17    18   ar
    18    18    19   ar
    19    19    20   ar
    20    20    21   ar
    21    21    22   ar
    22    11    23   ar
    23     6    24    1
    24    24    25   ar
    25    25    26   ar
    26    26    27   ar
    27    27    28   ar
    28    28    29   ar
    29     5     1   ar
    30    23     8   ar
    31    29    24   ar
    32    23     4   ar
    33    22    10   ar
    34    22    13   ar
    35    21    16   ar
    36     1    30    1
    37     2    31    1
    38     3    32    1
    39     7    33    1
    40     9    34    1
    41    14    35    1
    42    15    36    1
    43    17    37    1
    44    18    38    1
    45    19    39    1
    46    20    40    1
    47    25    41    1
    48    26    42    1
    49    27    43    1
    50    29    44    1
