@<TRIPOS>MOLECULE
*****
 40 46 0 0 0
SMALL
GASTEIGER

@<TRIPOS>ATOM
      1 C          -1.6383   -2.2982    0.8352 C.ar    1  UNL1        0.0101
      2 N          -0.6774   -3.2624    0.9912 N.ar    1  UNL1       -0.3659
      3 C           0.5671   -2.7372    0.7172 C.ar    1  UNL1        0.0100
      4 C           0.4130   -1.4240    0.3305 C.ar    1  UNL1        0.0084
      5 C          -1.0074   -1.1489    0.4191 C.ar    1  UNL1        0.0093
      6 C          -1.6327    0.0797    0.1868 C.ar    1  UNL1        0.0122
      7 C          -0.6620    1.0625   -0.0940 C.ar    1  UNL1       -0.0434
      8 C           0.7639    0.8022   -0.1900 C.ar    1  UNL1       -0.0053
      9 C           1.7038    1.8152   -0.4657 C.ar    1  UNL1        0.0282
     10 C           1.4638    3.1533   -0.6661 C.ar    1  UNL1        0.1000
     11 O           2.6369    3.8101   -0.9025 O.2     1  UNL1       -0.4698
     12 C           3.6368    2.8831   -0.8525 C.ar    1  UNL1        0.1000
     13 C           3.1114    1.6432   -0.5852 C.ar    1  UNL1        0.0282
     14 C           3.8082    0.4253   -0.4654 C.ar    1  UNL1       -0.0037
     15 C           5.2042    0.2763   -0.6084 C.ar    1  UNL1       -0.0352
     16 C           5.7263   -0.9918   -0.4942 C.ar    1  UNL1        0.0282
     17 N           4.9709   -2.0795   -0.2689 N.ar    1  UNL1       -0.2626
     18 C           3.6261   -1.8888   -0.1360 C.ar    1  UNL1        0.0359
     19 C           2.9314   -0.6698   -0.1922 C.ar    1  UNL1        0.0092
     20 C           1.4432   -0.4847   -0.0216 C.ar    1  UNL1        0.0011
     21 C          -3.0499    0.3623    0.2755 C.ar    1  UNL1        0.0997
     22 N          -3.4458    1.4297    1.0515 N.ar    1  UNL1       -0.2527
     23 C          -4.7639    1.7786    1.1745 C.ar    1  UNL1        0.0304
     24 C          -5.8545    1.1742    0.5614 C.ar    1  UNL1       -0.0153
     25 C          -5.5009    0.0992   -0.2743 C.ar    1  UNL1        0.1034
     26 N          -6.3639   -0.6365   -0.9933 N.ar    1  UNL1       -0.1907
     27 S          -5.4557   -1.7467   -1.8269 S.2     1  UNL1        0.1165
     28 N          -3.9334   -1.3552   -1.3039 N.ar    1  UNL1       -0.1886
     29 C          -4.0647   -0.3305   -0.4403 C.ar    1  UNL1        0.1257
     30 H          -2.6740   -2.5287    1.0441 H       1  UNL1        0.0813
     31 H          -0.8508   -4.2110    1.2983 H       1  UNL1        0.1648
     32 H           1.4189   -3.3796    0.8631 H       1  UNL1        0.0813
     33 H          -1.0202    2.0808   -0.2492 H       1  UNL1        0.0631
     34 H           0.5822    3.7783   -0.6752 H       1  UNL1        0.1036
     35 H           4.6301    3.2711   -1.0270 H       1  UNL1        0.1036
     36 H           5.8574    1.1169   -0.8069 H       1  UNL1        0.0639
     37 H           6.7919   -1.1750   -0.5928 H       1  UNL1        0.0830
     38 H           3.1088   -2.8282   -0.0049 H       1  UNL1        0.0836
     39 H          -4.9272    2.6306    1.8347 H       1  UNL1        0.0830
     40 H          -6.8737    1.5040    0.7008 H       1  UNL1        0.0655
@<TRIPOS>BOND
     1     1     2   ar
     2     2     3   ar
     3     3     4   ar
     4     4     5   ar
     5     5     6   ar
     6     6     7   ar
     7     7     8   ar
     8     8     9   ar
     9     9    10   ar
    10    10    11   ar
    11    11    12   ar
    12    12    13   ar
    13    13    14   ar
    14    14    15   ar
    15    15    16   ar
    16    16    17   ar
    17    17    18   ar
    18    18    19   ar
    19    19    20   ar
    20     6    21    1
    21    21    22   ar
    22    22    23   ar
    23    23    24   ar
    24    24    25   ar
    25    25    26   ar
    26    26    27   ar
    27    27    28   ar
    28    28    29   ar
    29     5     1   ar
    30    20     8   ar
    31    29    21   ar
    32    20     4   ar
    33    29    25   ar
    34    13     9   ar
    35    19    14   ar
    36     1    30    1
    37     2    31    1
    38     3    32    1
    39     7    33    1
    40    10    34    1
    41    12    35    1
    42    15    36    1
    43    16    37    1
    44    18    38    1
    45    23    39    1
    46    24    40    1
