@<TRIPOS>MOLECULE
*****
 44 51 0 0 0
SMALL
GASTEIGER

@<TRIPOS>ATOM
      1 C           2.3575    1.2917   -1.9384 C.ar    1  UNL1        0.0100
      2 N           1.3808    1.9132   -2.6780 N.ar    1  UNL1       -0.3659
      3 C           0.1388    1.5857   -2.1871 C.ar    1  UNL1        0.0101
      4 C           0.3074    0.7433   -1.1113 C.ar    1  UNL1        0.0098
      5 C           1.7276    0.5495   -0.9661 C.ar    1  UNL1        0.0078
      6 C           2.3562   -0.2277    0.0105 C.ar    1  UNL1       -0.0060
      7 C           1.3869   -0.8074    0.8580 C.ar    1  UNL1       -0.0434
      8 C          -0.0499   -0.6226    0.7208 C.ar    1  UNL1        0.0136
      9 C          -0.9362   -1.2624    1.6336 C.ar    1  UNL1        0.1083
     10 N          -0.5678   -2.0615    2.6526 N.ar    1  UNL1       -0.1901
     11 S          -1.9441   -2.5499    3.4172 S.2     1  UNL1        0.1165
     12 N          -3.0752   -1.7853    2.4916 N.ar    1  UNL1       -0.1901
     13 C          -2.4319   -1.0961    1.5308 C.ar    1  UNL1        0.1103
     14 C          -3.0481   -0.2849    0.5041 C.ar    1  UNL1        0.0383
     15 C          -4.4783   -0.0836    0.3491 C.ar    1  UNL1        0.0130
     16 C          -5.5124   -0.6202    1.1449 C.ar    1  UNL1        0.0360
     17 N          -6.8442   -0.4104    0.9700 N.ar    1  UNL1       -0.2626
     18 C          -7.2052    0.3799   -0.0528 C.ar    1  UNL1        0.0282
     19 C          -6.2960    0.9682   -0.9070 C.ar    1  UNL1       -0.0344
     20 C          -4.9289    0.7307   -0.6990 C.ar    1  UNL1        0.0038
     21 C          -3.9711    1.2924   -1.5227 C.ar    1  UNL1        0.0361
     22 N          -2.6397    1.1118   -1.3877 N.ar    1  UNL1       -0.2537
     23 C          -2.1438    0.3435   -0.4012 C.ar    1  UNL1        0.0821
     24 C          -0.7139    0.1747   -0.2863 C.ar    1  UNL1        0.0194
     25 C           3.7887   -0.4270    0.1366 C.ar    1  UNL1        0.0109
     26 C           4.5821   -1.0098   -0.8829 C.ar    1  UNL1       -0.0518
     27 C           5.9774   -1.2216   -0.7765 C.ar    1  UNL1       -0.0590
     28 C           6.7172   -0.8739    0.3639 C.ar    1  UNL1       -0.0335
     29 C           5.9875   -0.2919    1.4272 C.ar    1  UNL1        0.1005
     30 N           6.5070    0.1057    2.5990 N.ar    1  UNL1       -0.1908
     31 S           5.2448    0.7125    3.4891 S.2     1  UNL1        0.1165
     32 N           3.9858    0.4997    2.4329 N.ar    1  UNL1       -0.1902
     33 C           4.4956   -0.0623    1.3214 C.ar    1  UNL1        0.1076
     34 H           3.4013    1.4495   -2.1733 H       1  UNL1        0.0813
     35 H           1.5476    2.5316   -3.4613 H       1  UNL1        0.1648
     36 H          -0.7443    1.9995   -2.6538 H       1  UNL1        0.0813
     37 H           1.7445   -1.4392    1.6752 H       1  UNL1        0.0631
     38 H          -5.3093   -1.2677    1.9917 H       1  UNL1        0.0836
     39 H          -8.2738    0.5326   -0.1714 H       1  UNL1        0.0830
     40 H          -6.6490    1.5982   -1.7169 H       1  UNL1        0.0639
     41 H          -4.2469    1.9348   -2.3560 H       1  UNL1        0.0836
     42 H           4.0910   -1.3228   -1.8067 H       1  UNL1        0.0624
     43 H           6.4993   -1.6787   -1.6177 H       1  UNL1        0.0618
     44 H           7.7850   -1.0416    0.4352 H       1  UNL1        0.0640
@<TRIPOS>BOND
     1     1     2   ar
     2     2     3   ar
     3     3     4   ar
     4     4     5   ar
     5     5     6   ar
     6     6     7   ar
     7     7     8   ar
     8     8     9   ar
     9     9    10   ar
    10    10    11   ar
    11    11    12   ar
    12    12    13   ar
    13    13    14   ar
    14    14    15   ar
    15    15    16   ar
    16    16    17   ar
    17    17    18   ar
    18    18    19   ar
    19    19    20   ar
    20    20    21   ar
    21    21    22   ar
    22    22    23   ar
    23    23    24   ar
    24     6    25    1
    25    25    26   ar
    26    26    27   ar
    27    27    28   ar
    28    28    29   ar
    29    29    30   ar
    30    30    31   ar
    31    31    32   ar
    32    32    33   ar
    33     5     1   ar
    34    24     8   ar
    35    33    25   ar
    36    24     4   ar
    37    33    29   ar
    38    13     9   ar
    39    23    14   ar
    40    20    15   ar
    41     1    34    1
    42     2    35    1
    43     3    36    1
    44     7    37    1
    45    16    38    1
    46    18    39    1
    47    19    40    1
    48    21    41    1
    49    26    42    1
    50    27    43    1
    51    28    44    1
