@<TRIPOS>MOLECULE
*****
 44 50 0 0 0
SMALL
GASTEIGER

@<TRIPOS>ATOM
      1 C           1.9010   -1.7859   -1.4292 C.ar    1  UNL1        0.0101
      2 N           0.7359   -2.1877   -2.0295 N.ar    1  UNL1       -0.3659
      3 C          -0.3082   -1.4073   -1.5900 C.ar    1  UNL1        0.0100
      4 C           0.1618   -0.5685   -0.6019 C.ar    1  UNL1        0.0084
      5 C           1.5923   -0.7521   -0.5757 C.ar    1  UNL1        0.0092
      6 C           2.5160    0.0298    0.1220 C.ar    1  UNL1        0.0101
      7 C           1.8377    1.1189    0.7130 C.ar    1  UNL1       -0.0421
      8 C           0.3978    1.3298    0.6649 C.ar    1  UNL1        0.0122
      9 C          -0.1283    2.5611    1.1600 C.ar    1  UNL1        0.1082
     10 N           0.5862    3.5683    1.7006 N.ar    1  UNL1       -0.1901
     11 S          -0.4714    4.7939    2.0321 S.2     1  UNL1        0.1165
     12 N          -1.8849    4.1162    1.5103 N.ar    1  UNL1       -0.1901
     13 C          -1.5928    2.8760    1.0697 C.ar    1  UNL1        0.1082
     14 C          -2.5336    1.9121    0.5769 C.ar    1  UNL1        0.0115
     15 C          -3.8925    2.2704    0.4973 C.ar    1  UNL1       -0.0513
     16 C          -4.8404    1.3356    0.1158 C.ar    1  UNL1       -0.0534
     17 C          -4.4715    0.0069   -0.0749 C.ar    1  UNL1       -0.0173
     18 C          -5.4781   -0.9434   -0.3184 C.ar    1  UNL1       -0.0540
     19 C          -5.1833   -2.3008   -0.3822 C.ar    1  UNL1       -0.0612
     20 C          -3.8816   -2.7203   -0.1698 C.ar    1  UNL1       -0.0611
     21 C          -2.8733   -1.7754    0.0495 C.ar    1  UNL1       -0.0534
     22 C          -3.1049   -0.3789    0.0319 C.ar    1  UNL1       -0.0095
     23 C          -2.0634    0.6195    0.2129 C.ar    1  UNL1        0.0003
     24 C          -0.5923    0.4268    0.1008 C.ar    1  UNL1        0.0017
     25 C           3.9613   -0.1730    0.1527 C.ar    1  UNL1        0.0716
     26 C           4.8584    0.8745   -0.0603 C.ar    1  UNL1       -0.0357
     27 C           6.2278    0.6253    0.0062 C.ar    1  UNL1       -0.0583
     28 C           6.6714   -0.6592    0.2880 C.ar    1  UNL1       -0.0436
     29 C           5.7221   -1.6446    0.4902 C.ar    1  UNL1        0.0283
     30 N           4.3895   -1.4310    0.4285 N.ar    1  UNL1       -0.2550
     31 H           2.8444   -2.2457   -1.6933 H       1  UNL1        0.0813
     32 H           0.6669   -2.9056   -2.7391 H       1  UNL1        0.1648
     33 H          -1.2825   -1.5260   -2.0433 H       1  UNL1        0.0813
     34 H           2.4407    1.8652    1.2355 H       1  UNL1        0.0631
     35 H          -4.2166    3.2820    0.7359 H       1  UNL1        0.0624
     36 H          -5.8818    1.6428    0.0498 H       1  UNL1        0.0624
     37 H          -6.5155   -0.6328   -0.4281 H       1  UNL1        0.0624
     38 H          -5.9738   -3.0258   -0.5539 H       1  UNL1        0.0618
     39 H          -3.6420   -3.7802   -0.1580 H       1  UNL1        0.0618
     40 H          -1.8837   -2.1617    0.2833 H       1  UNL1        0.0624
     41 H           4.5024    1.8748   -0.2856 H       1  UNL1        0.0639
     42 H           6.9389    1.4292   -0.1602 H       1  UNL1        0.0619
     43 H           7.7292   -0.8873    0.3496 H       1  UNL1        0.0633
     44 H           6.0146   -2.6660    0.7159 H       1  UNL1        0.0830
@<TRIPOS>BOND
     1     1     2   ar
     2     2     3   ar
     3     3     4   ar
     4     4     5   ar
     5     5     6   ar
     6     6     7   ar
     7     7     8   ar
     8     8     9   ar
     9     9    10   ar
    10    10    11   ar
    11    11    12   ar
    12    12    13   ar
    13    13    14   ar
    14    14    15   ar
    15    15    16   ar
    16    16    17   ar
    17    17    18   ar
    18    18    19   ar
    19    19    20   ar
    20    20    21   ar
    21    21    22   ar
    22    22    23   ar
    23    23    24   ar
    24     6    25    1
    25    25    26   ar
    26    26    27   ar
    27    27    28   ar
    28    28    29   ar
    29    29    30   ar
    30     5     1   ar
    31    24     8   ar
    32    30    25   ar
    33    24     4   ar
    34    13     9   ar
    35    23    14   ar
    36    22    17   ar
    37     1    31    1
    38     2    32    1
    39     3    33    1
    40     7    34    1
    41    15    35    1
    42    16    36    1
    43    18    37    1
    44    19    38    1
    45    20    39    1
    46    21    40    1
    47    26    41    1
    48    27    42    1
    49    28    43    1
    50    29    44    1
