@<TRIPOS>MOLECULE
*****
 40 45 0 0 0
SMALL
GASTEIGER

@<TRIPOS>ATOM
      1 C          -2.7043    2.0770   -1.1677 C.ar    1  UNL1        0.0100
      2 N          -1.8244    2.9915   -1.7038 N.ar    1  UNL1       -0.3659
      3 C          -0.5254    2.5901   -1.4792 C.ar    1  UNL1        0.0100
      4 C          -0.5788    1.4017   -0.7909 C.ar    1  UNL1        0.0077
      5 C          -1.9568    1.0821   -0.5834 C.ar    1  UNL1        0.0077
      6 C          -2.4269   -0.0601    0.0727 C.ar    1  UNL1       -0.0067
      7 C          -1.3361   -0.8682    0.5039 C.ar    1  UNL1       -0.0455
      8 C           0.0651   -0.5697    0.3119 C.ar    1  UNL1       -0.0147
      9 C           1.0404   -1.4552    0.7951 C.ar    1  UNL1       -0.0300
     10 C           2.3996   -1.1549    0.6023 C.ar    1  UNL1        0.0481
     11 N           3.5190   -1.8609    0.9811 N.ar    1  UNL1       -0.3540
     12 C           4.6654   -1.2101    0.5942 C.ar    1  UNL1        0.0504
     13 C           6.0051   -1.5526    0.7643 C.ar    1  UNL1       -0.0196
     14 C           6.9121   -0.6457    0.2370 C.ar    1  UNL1        0.0295
     15 N           6.5829    0.4980   -0.4025 N.ar    1  UNL1       -0.2625
     16 C           5.2708    0.8077   -0.5548 C.ar    1  UNL1        0.0373
     17 C           4.2740   -0.0420   -0.0581 C.ar    1  UNL1        0.0255
     18 C           2.8431   -0.0077   -0.0528 C.ar    1  UNL1        0.0095
     19 C           1.8870    0.8987   -0.5479 C.ar    1  UNL1       -0.0436
     20 C           0.5123    0.6093   -0.3602 C.ar    1  UNL1       -0.0080
     21 C          -3.8268   -0.3892    0.2883 C.ar    1  UNL1        0.0009
     22 C          -4.6698    0.4218    1.0568 C.ar    1  UNL1       -0.0511
     23 C          -6.0018    0.0627    1.2539 C.ar    1  UNL1       -0.0430
     24 C          -6.4578   -1.1095    0.6757 C.ar    1  UNL1        0.0276
     25 N          -5.6850   -1.9263   -0.0695 N.ar    1  UNL1       -0.2627
     26 C          -4.3950   -1.5462   -0.2440 C.ar    1  UNL1        0.0353
     27 H          -3.7716    2.2250   -1.2632 H       1  UNL1        0.0813
     28 H          -2.0934    3.8312   -2.2003 H       1  UNL1        0.1648
     29 H           0.2999    3.1881   -1.8398 H       1  UNL1        0.0813
     30 H          -1.5847   -1.7893    1.0369 H       1  UNL1        0.0630
     31 H           0.7536   -2.3660    1.3139 H       1  UNL1        0.0644
     32 H           3.4980   -2.7400    1.4771 H       1  UNL1        0.1659
     33 H           6.3237   -2.4554    1.2680 H       1  UNL1        0.0653
     34 H           7.9809   -0.8267    0.3206 H       1  UNL1        0.0830
     35 H           5.0519    1.7335   -1.0736 H       1  UNL1        0.0836
     36 H           2.1998    1.8005   -1.0626 H       1  UNL1        0.0631
     37 H          -4.2878    1.3335    1.5107 H       1  UNL1        0.0625
     38 H          -6.6647    0.6817    1.8476 H       1  UNL1        0.0633
     39 H          -7.4871   -1.4327    0.8015 H       1  UNL1        0.0829
     40 H          -3.8066   -2.2260   -0.8560 H       1  UNL1        0.0836
@<TRIPOS>BOND
     1     1     2   ar
     2     2     3   ar
     3     3     4   ar
     4     4     5   ar
     5     5     6   ar
     6     6     7   ar
     7     7     8   ar
     8     8     9   ar
     9     9    10   ar
    10    10    11   ar
    11    11    12   ar
    12    12    13   ar
    13    13    14   ar
    14    14    15   ar
    15    15    16   ar
    16    16    17   ar
    17    17    18   ar
    18    18    19   ar
    19    19    20   ar
    20     6    21    1
    21    21    22   ar
    22    22    23   ar
    23    23    24   ar
    24    24    25   ar
    25    25    26   ar
    26     5     1   ar
    27    20     8   ar
    28    26    21   ar
    29    20     4   ar
    30    18    10   ar
    31    17    12   ar
    32     1    27    1
    33     2    28    1
    34     3    29    1
    35     7    30    1
    36     9    31    1
    37    11    32    1
    38    13    33    1
    39    14    34    1
    40    16    35    1
    41    19    36    1
    42    22    37    1
    43    23    38    1
    44    24    39    1
    45    26    40    1
