@<TRIPOS>MOLECULE
*****
 44 51 0 0 0
SMALL
GASTEIGER

@<TRIPOS>ATOM
      1 C           2.9272    1.1192   -2.4069 C.ar    1  UNL1        0.0100
      2 N           1.9677    1.6324   -3.2529 N.ar    1  UNL1       -0.3659
      3 C           0.7093    1.3710   -2.7579 C.ar    1  UNL1        0.0100
      4 C           0.8688    0.6830   -1.5788 C.ar    1  UNL1        0.0077
      5 C           2.2727    0.5091   -1.3622 C.ar    1  UNL1        0.0078
      6 C           2.8442   -0.1373   -0.2593 C.ar    1  UNL1       -0.0046
      7 C           1.8236   -0.5926    0.6250 C.ar    1  UNL1       -0.0454
      8 C           0.4008   -0.4337    0.4328 C.ar    1  UNL1       -0.0132
      9 C          -0.4886   -0.9384    1.3912 C.ar    1  UNL1       -0.0110
     10 C          -1.8609   -0.7722    1.1794 C.ar    1  UNL1        0.1369
     11 O          -2.8313   -1.2191    2.0369 O.2     1  UNL1       -0.4548
     12 C          -4.0371   -0.8734    1.4952 C.ar    1  UNL1        0.1369
     13 C          -5.3031   -1.1407    2.0514 C.ar    1  UNL1       -0.0181
     14 C          -6.4636   -0.7185    1.3700 C.ar    1  UNL1       -0.0500
     15 C          -6.2035   -0.0540    0.1678 C.ar    1  UNL1       -0.0101
     16 C          -7.2148    0.4291   -0.6313 C.ar    1  UNL1       -0.0166
     17 S          -6.6004    1.2027   -2.0502 S.2     1  UNL1       -0.1039
     18 C          -4.9610    0.8966   -1.6058 C.ar    1  UNL1       -0.0159
     19 C          -4.9420    0.2298   -0.4172 C.ar    1  UNL1        0.0005
     20 C          -3.7955   -0.2158    0.3064 C.ar    1  UNL1        0.0361
     21 C          -2.4184   -0.1315    0.0700 C.ar    1  UNL1        0.0291
     22 C          -1.5507    0.3850   -0.9050 C.ar    1  UNL1       -0.0420
     23 C          -0.1519    0.2267   -0.7113 C.ar    1  UNL1       -0.0079
     24 C           4.2654   -0.3337   -0.0504 C.ar    1  UNL1        0.0290
     25 C           5.1312   -0.9272   -0.9821 C.ar    1  UNL1        0.0375
     26 N           6.4831   -1.1524   -0.8683 N.ar    1  UNL1       -0.2604
     27 C           7.1513   -0.7928    0.2643 C.ar    1  UNL1        0.0557
     28 C           6.4170   -0.1918    1.3045 C.ar    1  UNL1        0.1185
     29 N           6.9019    0.2219    2.4867 N.ar    1  UNL1       -0.1892
     30 S           5.6160    0.8529    3.3240 S.2     1  UNL1        0.1165
     31 N           4.3920    0.6228    2.2308 N.ar    1  UNL1       -0.1901
     32 C           4.9348    0.0417    1.1440 C.ar    1  UNL1        0.1105
     33 H           3.9756    1.2539   -2.6365 H       1  UNL1        0.0813
     34 H           2.1605    2.1396   -4.1073 H       1  UNL1        0.1648
     35 H          -0.1668    1.7116   -3.2920 H       1  UNL1        0.0813
     36 H           2.1489   -1.1121    1.5306 H       1  UNL1        0.0630
     37 H          -0.1411   -1.4478    2.2837 H       1  UNL1        0.0660
     38 H          -5.3783   -1.6680    2.9974 H       1  UNL1        0.0655
     39 H          -7.4555   -0.9045    1.7642 H       1  UNL1        0.0625
     40 H          -8.2840    0.3799   -0.4767 H       1  UNL1        0.0699
     41 H          -4.1551    1.2258   -2.2431 H       1  UNL1        0.0700
     42 H          -1.9289    0.8923   -1.7834 H       1  UNL1        0.0631
     43 H           4.7268   -1.2801   -1.9327 H       1  UNL1        0.0836
     44 H           8.2139   -0.9895    0.3104 H       1  UNL1        0.0852
@<TRIPOS>BOND
     1     1     2   ar
     2     2     3   ar
     3     3     4   ar
     4     4     5   ar
     5     5     6   ar
     6     6     7   ar
     7     7     8   ar
     8     8     9   ar
     9     9    10   ar
    10    10    11   ar
    11    11    12   ar
    12    12    13   ar
    13    13    14   ar
    14    14    15   ar
    15    15    16   ar
    16    16    17   ar
    17    17    18   ar
    18    18    19   ar
    19    19    20   ar
    20    20    21   ar
    21    21    22   ar
    22    22    23   ar
    23     6    24    1
    24    24    25   ar
    25    25    26   ar
    26    26    27   ar
    27    27    28   ar
    28    28    29   ar
    29    29    30   ar
    30    30    31   ar
    31    31    32   ar
    32     5     1   ar
    33    23     8   ar
    34    32    24   ar
    35    23     4   ar
    36    32    28   ar
    37    21    10   ar
    38    20    12   ar
    39    19    15   ar
    40     1    33    1
    41     2    34    1
    42     3    35    1
    43     7    36    1
    44     9    37    1
    45    13    38    1
    46    14    39    1
    47    16    40    1
    48    18    41    1
    49    22    42    1
    50    25    43    1
    51    27    44    1
