@<TRIPOS>MOLECULE
*****
 47 53 0 0 0
SMALL
GASTEIGER

@<TRIPOS>ATOM
      1 C          -4.2518    1.0661    1.9295 C.ar    1  UNL1        0.0101
      2 N          -3.4464    1.4634    2.9654 N.ar    1  UNL1       -0.3659
      3 C          -2.1246    1.2903    2.6250 C.ar    1  UNL1        0.0100
      4 C          -2.0689    0.8363    1.3255 C.ar    1  UNL1        0.0084
      5 C          -3.4379    0.6544    0.8992 C.ar    1  UNL1        0.0107
      6 C          -3.8505    0.1067   -0.3201 C.ar    1  UNL1        0.0289
      7 C          -2.6986   -0.2947   -1.0514 C.ar    1  UNL1       -0.0427
      8 C          -1.3229   -0.1328   -0.6476 C.ar    1  UNL1       -0.0160
      9 C          -0.3388   -0.6013   -1.5059 C.ar    1  UNL1       -0.0534
     10 C           1.0187   -0.5166   -1.1791 C.ar    1  UNL1       -0.0528
     11 C           1.5073    0.0558    0.0137 C.ar    1  UNL1       -0.0090
     12 C           0.5271    0.6813    0.8348 C.ar    1  UNL1       -0.0089
     13 C           1.0028    1.5298    1.8435 C.ar    1  UNL1       -0.0528
     14 C           2.3597    1.7396    2.0601 C.ar    1  UNL1       -0.0534
     15 C           3.3164    1.0402    1.3329 C.ar    1  UNL1       -0.0167
     16 C           4.6599    1.3141    1.6019 C.ar    1  UNL1       -0.0534
     17 C           5.6738    0.6397    0.9390 C.ar    1  UNL1       -0.0534
     18 C           5.3704   -0.3924    0.0584 C.ar    1  UNL1       -0.0173
     19 C           6.4303   -1.1148   -0.5181 C.ar    1  UNL1       -0.0540
     20 C           6.1915   -2.2217   -1.3236 C.ar    1  UNL1       -0.0612
     21 C           4.8878   -2.6338   -1.5316 C.ar    1  UNL1       -0.0611
     22 C           3.8300   -1.9069   -0.9725 C.ar    1  UNL1       -0.0534
     23 C           4.0136   -0.7221   -0.2106 C.ar    1  UNL1       -0.0096
     24 C           2.9332    0.0958    0.3494 C.ar    1  UNL1       -0.0025
     25 C          -0.8959    0.4950    0.5664 C.ar    1  UNL1       -0.0010
     26 C          -5.2211   -0.0805   -0.7960 C.ar    1  UNL1        0.1636
     27 N          -6.1949    0.6882   -0.2996 N.ar    1  UNL1       -0.2160
     28 C          -7.4024    0.4691   -0.8135 C.ar    1  UNL1        0.1200
     29 N          -7.7067   -0.4226   -1.7512 N.ar    1  UNL1       -0.2241
     30 C          -6.6619   -1.1248   -2.1770 C.ar    1  UNL1        0.1200
     31 N          -5.4072   -1.0012   -1.7517 N.ar    1  UNL1       -0.2160
     32 H          -5.3270    1.0966    2.0410 H       1  UNL1        0.0813
     33 H          -3.7764    1.7901    3.8644 H       1  UNL1        0.1648
     34 H          -1.3727    1.4857    3.3731 H       1  UNL1        0.0813
     35 H          -2.8810   -0.7710   -2.0194 H       1  UNL1        0.0631
     36 H          -0.6046   -1.0523   -2.4608 H       1  UNL1        0.0624
     37 H           1.7082   -0.8498   -1.9504 H       1  UNL1        0.0624
     38 H           0.3232    2.1344    2.4311 H       1  UNL1        0.0624
     39 H           2.6537    2.4603    2.8209 H       1  UNL1        0.0624
     40 H           4.9371    2.0722    2.3321 H       1  UNL1        0.0624
     41 H           6.7064    0.8967    1.1645 H       1  UNL1        0.0624
     42 H           7.4625   -0.8308   -0.3215 H       1  UNL1        0.0624
     43 H           7.0202   -2.7778   -1.7521 H       1  UNL1        0.0618
     44 H           4.6829   -3.5293   -2.1124 H       1  UNL1        0.0618
     45 H           2.8394   -2.3337   -1.0989 H       1  UNL1        0.0624
     46 H          -8.2152    1.0767   -0.4307 H       1  UNL1        0.1048
     47 H          -6.8485   -1.8677   -2.9449 H       1  UNL1        0.1048
@<TRIPOS>BOND
     1     1     2   ar
     2     2     3   ar
     3     3     4   ar
     4     4     5   ar
     5     5     6   ar
     6     6     7   ar
     7     7     8   ar
     8     8     9   ar
     9     9    10   ar
    10    10    11   ar
    11    11    12   ar
    12    12    13   ar
    13    13    14   ar
    14    14    15   ar
    15    15    16   ar
    16    16    17   ar
    17    17    18   ar
    18    18    19   ar
    19    19    20   ar
    20    20    21   ar
    21    21    22   ar
    22    22    23   ar
    23    23    24   ar
    24    12    25   ar
    25     6    26    1
    26    26    27   ar
    27    27    28   ar
    28    28    29   ar
    29    29    30   ar
    30    30    31   ar
    31     5     1   ar
    32    25     8   ar
    33    31    26   ar
    34    25     4   ar
    35    24    11   ar
    36    24    15   ar
    37    23    18   ar
    38     1    32    1
    39     2    33    1
    40     3    34    1
    41     7    35    1
    42     9    36    1
    43    10    37    1
    44    13    38    1
    45    14    39    1
    46    16    40    1
    47    17    41    1
    48    19    42    1
    49    20    43    1
    50    21    44    1
    51    22    45    1
    52    28    46    1
    53    30    47    1
