@<TRIPOS>MOLECULE
*****
 47 54 0 0 0
SMALL
GASTEIGER

@<TRIPOS>ATOM
      1 C          -2.5700    2.3180   -0.2211 C.ar    1  UNL1        0.0100
      2 N          -1.6476    3.3074   -0.4513 N.ar    1  UNL1       -0.3659
      3 C          -0.3711    2.7917   -0.3763 C.ar    1  UNL1        0.0100
      4 C          -0.4649    1.4475   -0.0952 C.ar    1  UNL1        0.0088
      5 C          -1.8720    1.1531   -0.0091 C.ar    1  UNL1        0.0078
      6 C          -2.4257   -0.0995    0.2657 C.ar    1  UNL1       -0.0075
      7 C          -1.4029   -1.0587    0.4652 C.ar    1  UNL1       -0.0456
      8 C           0.0116   -0.7993    0.3831 C.ar    1  UNL1       -0.0156
      9 C           0.8927   -1.8489    0.5958 C.ar    1  UNL1       -0.0534
     10 C           2.2765   -1.6623    0.5291 C.ar    1  UNL1       -0.0523
     11 C           2.8476   -0.3979    0.2419 C.ar    1  UNL1       -0.0018
     12 C           1.9695    0.6848    0.0219 C.ar    1  UNL1        0.0288
     13 S           2.8664    2.1329   -0.3132 S.2     1  UNL1       -0.0876
     14 C           4.3956    1.3813   -0.1771 C.ar    1  UNL1        0.0212
     15 C           5.6830    1.9872   -0.3342 C.ar    1  UNL1       -0.0467
     16 C           6.8794    1.2589   -0.1970 C.ar    1  UNL1       -0.0499
     17 C           6.6290   -0.0683    0.0987 C.ar    1  UNL1        0.0205
     18 C           7.5890   -1.0314    0.2917 C.ar    1  UNL1        0.0994
     19 O           6.9956   -2.2364    0.5671 O.2     1  UNL1       -0.4698
     20 C           5.6361   -2.0403    0.5495 C.ar    1  UNL1        0.1000
     21 C           5.4013   -0.7294    0.2666 C.ar    1  UNL1        0.0286
     22 C           4.1965    0.0439    0.1198 C.ar    1  UNL1        0.0076
     23 C           0.5613    0.4965    0.0898 C.ar    1  UNL1        0.0056
     24 C          -3.8368   -0.3906    0.3542 C.ar    1  UNL1       -0.0065
     25 C          -4.5157   -0.7622    1.5462 C.ar    1  UNL1       -0.0533
     26 C          -5.9244   -1.0645    1.6255 C.ar    1  UNL1       -0.0605
     27 C          -6.8087   -1.0368    0.5225 C.ar    1  UNL1       -0.0510
     28 C          -6.1229   -0.6827   -0.6306 C.ar    1  UNL1        0.0204
     29 C          -6.6394   -0.5639   -1.8927 C.ar    1  UNL1        0.0994
     30 O          -5.6426   -0.2098   -2.7616 O.2     1  UNL1       -0.4698
     31 C          -4.4835   -0.1049   -2.0400 C.ar    1  UNL1        0.1000
     32 C          -4.7323   -0.3791   -0.7191 C.ar    1  UNL1        0.0276
     33 H          -3.6290    2.5401   -0.2307 H       1  UNL1        0.0813
     34 H          -1.8696    4.2761   -0.6417 H       1  UNL1        0.1648
     35 H           0.4621    3.4593   -0.5302 H       1  UNL1        0.0813
     36 H          -1.7235   -2.0790    0.6894 H       1  UNL1        0.0630
     37 H           0.5208   -2.8475    0.8198 H       1  UNL1        0.0624
     38 H           2.9068   -2.5271    0.7055 H       1  UNL1        0.0624
     39 H           5.7391    3.0497   -0.5683 H       1  UNL1        0.0629
     40 H           7.8574    1.7056   -0.3134 H       1  UNL1        0.0625
     41 H           8.6698   -1.0433    0.2740 H       1  UNL1        0.1035
     42 H           5.0492   -2.9216    0.7536 H       1  UNL1        0.1036
     43 H          -3.9400   -0.8160    2.4722 H       1  UNL1        0.0624
     44 H          -6.3289   -1.3315    2.6030 H       1  UNL1        0.0618
     45 H          -7.8618   -1.2675    0.5921 H       1  UNL1        0.0625
     46 H          -7.6182   -0.6877   -2.3334 H       1  UNL1        0.1035
     47 H          -3.6047    0.1670   -2.6079 H       1  UNL1        0.1036
@<TRIPOS>BOND
     1     1     2   ar
     2     2     3   ar
     3     3     4   ar
     4     4     5   ar
     5     5     6   ar
     6     6     7   ar
     7     7     8   ar
     8     8     9   ar
     9     9    10   ar
    10    10    11   ar
    11    11    12   ar
    12    12    13   ar
    13    13    14   ar
    14    14    15   ar
    15    15    16   ar
    16    16    17   ar
    17    17    18   ar
    18    18    19   ar
    19    19    20   ar
    20    20    21   ar
    21    21    22   ar
    22    12    23   ar
    23     6    24    1
    24    24    25   ar
    25    25    26   ar
    26    26    27   ar
    27    27    28   ar
    28    28    29   ar
    29    29    30   ar
    30    30    31   ar
    31    31    32   ar
    32     5     1   ar
    33    23     8   ar
    34    32    24   ar
    35    23     4   ar
    36    32    28   ar
    37    22    11   ar
    38    22    14   ar
    39    21    17   ar
    40     1    33    1
    41     2    34    1
    42     3    35    1
    43     7    36    1
    44     9    37    1
    45    10    38    1
    46    15    39    1
    47    16    40    1
    48    18    41    1
    49    20    42    1
    50    25    43    1
    51    26    44    1
    52    27    45    1
    53    29    46    1
    54    31    47    1
