@<TRIPOS>MOLECULE
*****
 36 40 0 0 0
SMALL
GASTEIGER

@<TRIPOS>ATOM
      1 SI          2.9850   -1.0781   -0.0290 Si      1  UNL1        0.0000
      2 C           1.5342    0.1078    0.3316 C.2     1  UNL1        0.0000
      3 C           2.0067    1.3543    0.5457 C.2     1  UNL1        0.0000
      4 C           3.4541    1.5119    0.4700 C.2     1  UNL1        0.0000
      5 C           4.1524    0.3933    0.1839 C.2     1  UNL1        0.0000
      6 C           5.5613    0.2922    0.0512 C.ar    1  UNL1        0.0000
      7 C           6.3391   -0.5635   -0.7214 C.ar    1  UNL1        0.0000
      8 N           7.7108   -0.4296   -0.6201 N.ar    1  UNL1        0.0000
      9 C           7.9839    0.5337    0.2274 C.ar    1  UNL1        0.0000
     10 S           6.6423    1.3174    0.9394 S.2     1  UNL1        0.0000
     11 C           0.1689   -0.3378    0.3160 C.2     1  UNL1        0.0000
     12 SI         -1.1863    0.5995   -0.6716 Si      1  UNL1        0.0000
     13 C          -2.3974   -0.7087   -0.0856 C.2     1  UNL1        0.0000
     14 C          -1.7930   -1.6361    0.6822 C.2     1  UNL1        0.0000
     15 C          -0.3683   -1.4278    0.9061 C.2     1  UNL1        0.0000
     16 C          -3.7534   -0.7367   -0.4552 C.ar    1  UNL1        0.0000
     17 S          -4.4277   -1.9479   -1.4896 S.2     1  UNL1        0.0000
     18 C          -6.0080   -1.2673   -1.4256 C.ar    1  UNL1        0.0000
     19 C          -5.9601   -0.1788   -0.6269 C.ar    1  UNL1        0.0000
     20 C          -6.9373    0.7536   -0.2046 C.ar    1  UNL1        0.0000
     21 C          -6.4100    1.7283    0.6499 C.ar    1  UNL1        0.0000
     22 S          -4.6948    1.6000    1.0164 S.2     1  UNL1        0.0000
     23 C          -4.7258    0.1485   -0.0639 C.ar    1  UNL1        0.0000
     24 H           3.1504   -2.1050    1.0325 H       1  UNL1        0.0000
     25 H           2.9733   -1.5843   -1.4263 H       1  UNL1        0.0000
     26 H           1.3863    2.2137    0.7732 H       1  UNL1        0.0000
     27 H           3.8909    2.4907    0.6307 H       1  UNL1        0.0000
     28 H           5.9524   -1.3174   -1.3973 H       1  UNL1        0.0000
     29 H           8.9994    0.8208    0.4666 H       1  UNL1        0.0000
     30 H          -1.4251    1.9527   -0.1049 H       1  UNL1        0.0000
     31 H          -0.9244    0.5440   -2.1338 H       1  UNL1        0.0000
     32 H          -2.2960   -2.4918    1.1175 H       1  UNL1        0.0000
     33 H           0.1842   -2.1265    1.5234 H       1  UNL1        0.0000
     34 H          -6.8375   -1.7080   -1.9601 H       1  UNL1        0.0000
     35 H          -7.9816    0.7362   -0.4917 H       1  UNL1        0.0000
     36 H          -6.9490    2.5466    1.1079 H       1  UNL1        0.0000
@<TRIPOS>BOND
     1     1     2    1
     2     2     3    2
     3     3     4    1
     4     4     5    2
     5     5     6    1
     6     6     7   ar
     7     7     8   ar
     8     8     9   ar
     9     9    10   ar
    10     2    11    1
    11    11    12    1
    12    12    13    1
    13    13    14    2
    14    14    15    1
    15    13    16    1
    16    16    17   ar
    17    17    18   ar
    18    18    19   ar
    19    19    20   ar
    20    20    21   ar
    21    21    22   ar
    22    22    23   ar
    23     5     1    1
    24    10     6   ar
    25    15    11    2
    26    23    16   ar
    27    23    19   ar
    28     1    24    1
    29     1    25    1
    30     3    26    1
    31     4    27    1
    32     7    28    1
    33     9    29    1
    34    12    30    1
    35    12    31    1
    36    14    32    1
    37    15    33    1
    38    18    34    1
    39    20    35    1
    40    21    36    1
