@<TRIPOS>MOLECULE
*****
 44 50 0 0 0
SMALL
GASTEIGER

@<TRIPOS>ATOM
      1 C          -1.7657   -1.6608    1.6691 C.ar    1  UNL1        0.0100
      2 N          -0.7179   -2.3909    2.1799 N.ar    1  UNL1       -0.3659
      3 C           0.4769   -1.8898    1.7162 C.ar    1  UNL1        0.0101
      4 C           0.1974   -0.8234    0.8942 C.ar    1  UNL1        0.0098
      5 C          -1.2301   -0.6884    0.8580 C.ar    1  UNL1        0.0078
      6 C          -1.9351    0.2794    0.1394 C.ar    1  UNL1       -0.0074
      7 C          -1.0341    1.1291   -0.5483 C.ar    1  UNL1       -0.0441
      8 C           0.4075    1.0077   -0.5274 C.ar    1  UNL1        0.0035
      9 C           1.1914    1.8917   -1.2466 C.ar    1  UNL1        0.0361
     10 N           2.5416    1.8651   -1.2935 N.ar    1  UNL1       -0.2522
     11 C           3.2042    0.9118   -0.5947 C.ar    1  UNL1        0.0989
     12 C           4.6091    0.8655   -0.6301 C.ar    1  UNL1        0.0291
     13 C           5.3830    1.7706   -1.3645 C.ar    1  UNL1        0.0374
     14 N           6.7394    1.7654   -1.4287 N.ar    1  UNL1       -0.2626
     15 C           7.3770    0.8095   -0.7270 C.ar    1  UNL1        0.0282
     16 C           6.7243   -0.1413    0.0361 C.ar    1  UNL1       -0.0344
     17 C           5.3227   -0.1105    0.0834 C.ar    1  UNL1        0.0052
     18 C           4.5801   -1.0185    0.8184 C.ar    1  UNL1        0.0362
     19 N           3.2338   -1.0093    0.8797 N.ar    1  UNL1       -0.2522
     20 C           2.5476   -0.0629    0.1873 C.ar    1  UNL1        0.0981
     21 C           1.1265    0.0091    0.2036 C.ar    1  UNL1        0.0202
     22 C          -3.3711    0.4185    0.1044 C.ar    1  UNL1       -0.0065
     23 C          -4.0930    1.5189    0.6413 C.ar    1  UNL1       -0.0533
     24 C          -5.5282    1.6593    0.5909 C.ar    1  UNL1       -0.0605
     25 C          -6.4001    0.7211   -0.0080 C.ar    1  UNL1       -0.0510
     26 C          -5.6739   -0.3377   -0.5339 C.ar    1  UNL1        0.0204
     27 C          -6.1698   -1.4269   -1.1983 C.ar    1  UNL1        0.0994
     28 O          -5.1357   -2.2419   -1.5726 O.2     1  UNL1       -0.4698
     29 C          -3.9738   -1.6603   -1.1404 C.ar    1  UNL1        0.1000
     30 C          -4.2564   -0.4878   -0.4865 C.ar    1  UNL1        0.0276
     31 H          -2.7854   -1.9069    1.9346 H       1  UNL1        0.0813
     32 H          -0.8098   -3.1773    2.8100 H       1  UNL1        0.1648
     33 H           1.4096   -2.3425    2.0245 H       1  UNL1        0.0813
     34 H          -1.4702    1.9317   -1.1484 H       1  UNL1        0.0630
     35 H           0.7458    2.6889   -1.8381 H       1  UNL1        0.0836
     36 H           4.9140    2.5611   -1.9481 H       1  UNL1        0.0836
     37 H           8.4610    0.8282   -0.7963 H       1  UNL1        0.0830
     38 H           7.2973   -0.8857    0.5786 H       1  UNL1        0.0639
     39 H           5.0532   -1.8061    1.3992 H       1  UNL1        0.0836
     40 H          -3.5314    2.3129    1.1371 H       1  UNL1        0.0624
     41 H          -5.9647    2.5496    1.0463 H       1  UNL1        0.0618
     42 H          -7.4737    0.8370   -0.0427 H       1  UNL1        0.0625
     43 H          -7.1556   -1.7659   -1.4828 H       1  UNL1        0.1035
     44 H          -3.0679   -2.2016   -1.3750 H       1  UNL1        0.1036
@<TRIPOS>BOND
     1     1     2   ar
     2     2     3   ar
     3     3     4   ar
     4     4     5   ar
     5     5     6   ar
     6     6     7   ar
     7     7     8   ar
     8     8     9   ar
     9     9    10   ar
    10    10    11   ar
    11    11    12   ar
    12    12    13   ar
    13    13    14   ar
    14    14    15   ar
    15    15    16   ar
    16    16    17   ar
    17    17    18   ar
    18    18    19   ar
    19    19    20   ar
    20    20    21   ar
    21     6    22    1
    22    22    23   ar
    23    23    24   ar
    24    24    25   ar
    25    25    26   ar
    26    26    27   ar
    27    27    28   ar
    28    28    29   ar
    29    29    30   ar
    30     5     1   ar
    31    21     8   ar
    32    30    22   ar
    33    21     4   ar
    34    30    26   ar
    35    20    11   ar
    36    17    12   ar
    37     1    31    1
    38     2    32    1
    39     3    33    1
    40     7    34    1
    41     9    35    1
    42    13    36    1
    43    15    37    1
    44    16    38    1
    45    18    39    1
    46    23    40    1
    47    24    41    1
    48    25    42    1
    49    27    43    1
    50    29    44    1
