@<TRIPOS>MOLECULE
*****
 43 49 0 0 0
SMALL
GASTEIGER

@<TRIPOS>ATOM
      1 C          -1.7962    2.0933   -0.6880 C.ar    1  UNL1        0.0100
      2 N          -0.6378    2.7576   -1.0119 N.ar    1  UNL1       -0.3659
      3 C           0.4284    1.8896   -0.9624 C.ar    1  UNL1        0.0100
      4 C          -0.0237    0.6767   -0.4935 C.ar    1  UNL1        0.0084
      5 C          -1.4584    0.7831   -0.4391 C.ar    1  UNL1        0.0078
      6 C          -2.3441   -0.2665   -0.1913 C.ar    1  UNL1       -0.0045
      7 C          -1.6184   -1.4774   -0.1013 C.ar    1  UNL1       -0.0441
      8 C          -0.1805   -1.6035   -0.1905 C.ar    1  UNL1        0.0021
      9 C           0.3766   -2.8675   -0.2311 C.ar    1  UNL1        0.0360
     10 N           1.6881   -3.1333   -0.3979 N.ar    1  UNL1       -0.2543
     11 C           2.5548   -2.1142   -0.3985 C.ar    1  UNL1        0.0722
     12 C           3.8792   -2.4607   -0.5831 C.ar    1  UNL1       -0.0351
     13 C           4.9008   -1.5197   -0.5395 C.ar    1  UNL1       -0.0520
     14 C           4.6164   -0.2038   -0.1955 C.ar    1  UNL1       -0.0172
     15 C           5.6751    0.7057   -0.0269 C.ar    1  UNL1       -0.0540
     16 C           5.4424    1.9950    0.4392 C.ar    1  UNL1       -0.0612
     17 C           4.1519    2.3716    0.7708 C.ar    1  UNL1       -0.0611
     18 C           3.0955    1.4738    0.5829 C.ar    1  UNL1       -0.0534
     19 C           3.2709    0.1838    0.0280 C.ar    1  UNL1       -0.0081
     20 C           2.1914   -0.7617   -0.2219 C.ar    1  UNL1        0.0164
     21 C           0.7472   -0.5151   -0.2846 C.ar    1  UNL1        0.0025
     22 C          -3.7885   -0.1669   -0.1370 C.ar    1  UNL1        0.0290
     23 C          -4.5927    0.3809   -1.1478 C.ar    1  UNL1        0.0375
     24 N          -5.9616    0.5088   -1.1726 N.ar    1  UNL1       -0.2604
     25 C          -6.7177    0.0656   -0.1280 C.ar    1  UNL1        0.0557
     26 C          -6.0559   -0.5271    0.9644 C.ar    1  UNL1        0.1185
     27 N          -6.6309   -1.0243    2.0715 N.ar    1  UNL1       -0.1892
     28 S          -5.3969   -1.5933    3.0238 S.2     1  UNL1        0.1165
     29 N          -4.0852   -1.2427    2.0729 N.ar    1  UNL1       -0.1901
     30 C          -4.5525   -0.6493    0.9580 C.ar    1  UNL1        0.1105
     31 H          -2.7426    2.6167   -0.7090 H       1  UNL1        0.0813
     32 H          -0.5826    3.7278   -1.2956 H       1  UNL1        0.1648
     33 H           1.4033    2.2319   -1.2803 H       1  UNL1        0.0813
     34 H          -2.1991   -2.3963    0.0177 H       1  UNL1        0.0630
     35 H          -0.2439   -3.7596   -0.1783 H       1  UNL1        0.0836
     36 H           4.1288   -3.5039   -0.7668 H       1  UNL1        0.0639
     37 H           5.9239   -1.8495   -0.7046 H       1  UNL1        0.0624
     38 H           6.7006    0.4025   -0.2294 H       1  UNL1        0.0624
     39 H           6.2703    2.6838    0.5814 H       1  UNL1        0.0618
     40 H           3.9595    3.3547    1.1921 H       1  UNL1        0.0618
     41 H           2.1154    1.7863    0.9338 H       1  UNL1        0.0624
     42 H          -4.1204    0.7605   -2.0558 H       1  UNL1        0.0836
     43 H          -7.7908    0.1868   -0.1910 H       1  UNL1        0.0852
@<TRIPOS>BOND
     1     1     2   ar
     2     2     3   ar
     3     3     4   ar
     4     4     5   ar
     5     5     6   ar
     6     6     7   ar
     7     7     8   ar
     8     8     9   ar
     9     9    10   ar
    10    10    11   ar
    11    11    12   ar
    12    12    13   ar
    13    13    14   ar
    14    14    15   ar
    15    15    16   ar
    16    16    17   ar
    17    17    18   ar
    18    18    19   ar
    19    19    20   ar
    20    20    21   ar
    21     6    22    1
    22    22    23   ar
    23    23    24   ar
    24    24    25   ar
    25    25    26   ar
    26    26    27   ar
    27    27    28   ar
    28    28    29   ar
    29    29    30   ar
    30     5     1   ar
    31    21     8   ar
    32    30    22   ar
    33    21     4   ar
    34    30    26   ar
    35    20    11   ar
    36    19    14   ar
    37     1    31    1
    38     2    32    1
    39     3    33    1
    40     7    34    1
    41     9    35    1
    42    12    36    1
    43    13    37    1
    44    15    38    1
    45    16    39    1
    46    17    40    1
    47    18    41    1
    48    23    42    1
    49    25    43    1
