@<TRIPOS>MOLECULE
*****
 42 48 0 0 0
SMALL
GASTEIGER

@<TRIPOS>ATOM
      1 C           2.9265   -2.0974   -0.2708 C.ar    1  UNL1        0.0100
      2 N           2.0879   -3.1700   -0.4967 N.ar    1  UNL1       -0.3659
      3 C           0.7686   -2.7604   -0.4626 C.ar    1  UNL1        0.0101
      4 C           0.8067   -1.4196   -0.2259 C.ar    1  UNL1        0.0113
      5 C           2.1460   -0.9742   -0.0976 C.ar    1  UNL1        0.0080
      6 C           2.6183    0.3175    0.1813 C.ar    1  UNL1       -0.0038
      7 C           1.5679    1.2457    0.3616 C.ar    1  UNL1       -0.0103
      8 C           0.2237    0.8338    0.2344 C.ar    1  UNL1        0.1376
      9 O          -0.8560    1.6591    0.3944 O.2     1  UNL1       -0.4526
     10 C          -1.9907    0.9055    0.1897 C.ar    1  UNL1        0.1627
     11 C          -1.6024   -0.3997   -0.1089 C.ar    1  UNL1        0.0414
     12 C          -2.6688   -1.3043   -0.3778 C.ar    1  UNL1        0.0319
     13 C          -2.7140   -2.6139   -0.7380 C.ar    1  UNL1        0.1001
     14 O          -4.0314   -2.9764   -0.8719 O.2     1  UNL1       -0.4698
     15 C          -4.7941   -1.8723   -0.5998 C.ar    1  UNL1        0.1000
     16 C          -3.9867   -0.8023   -0.2941 C.ar    1  UNL1        0.0298
     17 C          -4.4138    0.5059    0.0211 C.ar    1  UNL1        0.0147
     18 C          -5.7221    1.0227    0.1096 C.ar    1  UNL1       -0.0503
     19 C          -5.8901    2.3656    0.4335 C.ar    1  UNL1       -0.0430
     20 C          -4.7608    3.1446    0.6554 C.ar    1  UNL1        0.0284
     21 N          -3.4896    2.6883    0.5797 N.ar    1  UNL1       -0.2512
     22 C          -3.3280    1.3804    0.2660 C.ar    1  UNL1        0.1144
     23 C          -0.2224   -0.4468   -0.0638 C.ar    1  UNL1        0.0378
     24 C           4.0261    0.6735    0.2887 C.ar    1  UNL1        0.0010
     25 C           4.8808    0.6493   -0.8194 C.ar    1  UNL1       -0.0511
     26 C           6.2198    1.0088   -0.6799 C.ar    1  UNL1       -0.0430
     27 C           6.6703    1.3877    0.5731 C.ar    1  UNL1        0.0276
     28 N           5.8857    1.4293    1.6698 N.ar    1  UNL1       -0.2627
     29 C           4.5880    1.0748    1.5002 C.ar    1  UNL1        0.0353
     30 H           3.9981   -2.2466   -0.2438 H       1  UNL1        0.0813
     31 H           2.3957   -4.1227   -0.6452 H       1  UNL1        0.1648
     32 H          -0.0111   -3.4883   -0.5937 H       1  UNL1        0.0813
     33 H           1.7816    2.2869    0.5894 H       1  UNL1        0.0661
     34 H          -2.0143   -3.4032   -0.9466 H       1  UNL1        0.1036
     35 H          -5.8616   -2.0243   -0.6761 H       1  UNL1        0.1036
     36 H          -6.5882    0.3940   -0.0700 H       1  UNL1        0.0625
     37 H          -6.8805    2.8012    0.5117 H       1  UNL1        0.0633
     38 H          -4.8536    4.1974    0.9098 H       1  UNL1        0.0830
     39 H           4.5030    0.3556   -1.7961 H       1  UNL1        0.0625
     40 H           6.8926    0.9967   -1.5297 H       1  UNL1        0.0633
     41 H           7.7048    1.6782    0.7324 H       1  UNL1        0.0829
     42 H           3.9882    1.1197    2.4064 H       1  UNL1        0.0836
@<TRIPOS>BOND
     1     1     2   ar
     2     2     3   ar
     3     3     4   ar
     4     4     5   ar
     5     5     6   ar
     6     6     7   ar
     7     7     8   ar
     8     8     9   ar
     9     9    10   ar
    10    10    11   ar
    11    11    12   ar
    12    12    13   ar
    13    13    14   ar
    14    14    15   ar
    15    15    16   ar
    16    16    17   ar
    17    17    18   ar
    18    18    19   ar
    19    19    20   ar
    20    20    21   ar
    21    21    22   ar
    22    11    23   ar
    23     6    24    1
    24    24    25   ar
    25    25    26   ar
    26    26    27   ar
    27    27    28   ar
    28    28    29   ar
    29     5     1   ar
    30    23     8   ar
    31    29    24   ar
    32    23     4   ar
    33    22    10   ar
    34    16    12   ar
    35    22    17   ar
    36     1    30    1
    37     2    31    1
    38     3    32    1
    39     7    33    1
    40    13    34    1
    41    15    35    1
    42    18    36    1
    43    19    37    1
    44    20    38    1
    45    25    39    1
    46    26    40    1
    47    27    41    1
    48    29    42    1
