@<TRIPOS>MOLECULE
*****
 46 53 0 0 0
SMALL
GASTEIGER

@<TRIPOS>ATOM
      1 C          -2.2491    0.8629    1.7829 C.ar    1  UNL1        0.0100
      2 N          -1.3579    1.6332    2.4997 N.ar    1  UNL1       -0.3659
      3 C          -0.0860    1.4874    1.9837 C.ar    1  UNL1        0.0100
      4 C          -0.1906    0.5597    0.9882 C.ar    1  UNL1        0.0088
      5 C          -1.5447    0.2109    0.7930 C.ar    1  UNL1        0.0078
      6 C          -2.1048   -0.5857   -0.2052 C.ar    1  UNL1       -0.0071
      7 C          -1.1332   -1.0124   -1.1325 C.ar    1  UNL1       -0.0390
      8 C           0.2514   -0.6877   -0.9946 C.ar    1  UNL1        0.0217
      9 S           1.5030   -1.0551   -2.1239 S.2     1  UNL1       -0.0875
     10 C           2.7569   -0.3526   -1.1438 C.ar    1  UNL1        0.0303
     11 C           2.1866    0.0873    0.0544 C.ar    1  UNL1        0.0089
     12 C           3.1293    0.4976    1.0575 C.ar    1  UNL1        0.0293
     13 C           2.9996    0.7485    2.3895 C.ar    1  UNL1        0.1000
     14 O           4.2320    1.0746    2.8916 O.2     1  UNL1       -0.4698
     15 C           5.1307    0.9657    1.8655 C.ar    1  UNL1        0.1000
     16 C           4.4923    0.5654    0.7139 C.ar    1  UNL1        0.0283
     17 C           5.1092    0.2512   -0.5089 C.ar    1  UNL1       -0.0032
     18 C           6.4776    0.3404   -0.8340 C.ar    1  UNL1       -0.0352
     19 C           6.8664   -0.0731   -2.0947 C.ar    1  UNL1        0.0282
     20 N           6.0162   -0.5606   -3.0238 N.ar    1  UNL1       -0.2626
     21 C           4.7033   -0.6394   -2.6847 C.ar    1  UNL1        0.0364
     22 C           4.1730   -0.2479   -1.4484 C.ar    1  UNL1        0.0152
     23 C           0.7865    0.0167    0.0792 C.ar    1  UNL1        0.0068
     24 C          -3.5135   -0.8910   -0.3244 C.ar    1  UNL1       -0.0090
     25 C          -4.0875   -2.1215    0.0875 C.ar    1  UNL1       -0.0534
     26 C          -5.4792   -2.4427   -0.0302 C.ar    1  UNL1       -0.0606
     27 C          -6.4452   -1.5710   -0.5756 C.ar    1  UNL1       -0.0535
     28 C          -5.8804   -0.3639   -0.9863 C.ar    1  UNL1       -0.0103
     29 C          -6.6244    0.6410   -1.5536 C.ar    1  UNL1       -0.0166
     30 S          -5.6417    1.9929   -1.9548 S.2     1  UNL1       -0.1039
     31 C          -4.2173    1.2272   -1.3695 C.ar    1  UNL1       -0.0160
     32 C          -4.4810   -0.0288   -0.8722 C.ar    1  UNL1       -0.0032
     33 H          -3.3039    0.8863    2.0247 H       1  UNL1        0.0813
     34 H          -1.6101    2.2548    3.2577 H       1  UNL1        0.1648
     35 H           0.7171    2.0981    2.3650 H       1  UNL1        0.0813
     36 H          -1.4518   -1.5911   -1.9993 H       1  UNL1        0.0635
     37 H           2.2081    0.7167    3.1212 H       1  UNL1        0.1036
     38 H           6.1572    1.1695    2.1360 H       1  UNL1        0.1036
     39 H           7.2125    0.7127   -0.1309 H       1  UNL1        0.0639
     40 H           7.9075   -0.0269   -2.4022 H       1  UNL1        0.0830
     41 H           4.0754   -1.0380   -3.4771 H       1  UNL1        0.0836
     42 H          -3.4326   -2.8754    0.5282 H       1  UNL1        0.0624
     43 H          -5.8073   -3.4207    0.3239 H       1  UNL1        0.0618
     44 H          -7.4917   -1.8328   -0.6568 H       1  UNL1        0.0624
     45 H          -7.6854    0.6668   -1.7599 H       1  UNL1        0.0699
     46 H          -3.2723    1.7505   -1.4246 H       1  UNL1        0.0700
@<TRIPOS>BOND
     1     1     2   ar
     2     2     3   ar
     3     3     4   ar
     4     4     5   ar
     5     5     6   ar
     6     6     7   ar
     7     7     8   ar
     8     8     9   ar
     9     9    10   ar
    10    10    11   ar
    11    11    12   ar
    12    12    13   ar
    13    13    14   ar
    14    14    15   ar
    15    15    16   ar
    16    16    17   ar
    17    17    18   ar
    18    18    19   ar
    19    19    20   ar
    20    20    21   ar
    21    21    22   ar
    22    11    23   ar
    23     6    24    1
    24    24    25   ar
    25    25    26   ar
    26    26    27   ar
    27    27    28   ar
    28    28    29   ar
    29    29    30   ar
    30    30    31   ar
    31    31    32   ar
    32     5     1   ar
    33    23     8   ar
    34    32    24   ar
    35    23     4   ar
    36    32    28   ar
    37    22    10   ar
    38    16    12   ar
    39    22    17   ar
    40     1    33    1
    41     2    34    1
    42     3    35    1
    43     7    36    1
    44    13    37    1
    45    15    38    1
    46    18    39    1
    47    19    40    1
    48    21    41    1
    49    25    42    1
    50    26    43    1
    51    27    44    1
    52    29    45    1
    53    31    46    1
