@<TRIPOS>MOLECULE
*****
 43 49 0 0 0
SMALL
GASTEIGER

@<TRIPOS>ATOM
      1 C          -2.5907   -1.7774   -1.4329 C.ar    1  UNL1        0.0100
      2 N          -3.8896   -2.0750   -1.7906 N.ar    1  UNL1       -0.3659
      3 C          -4.7667   -1.2680   -1.0951 C.ar    1  UNL1        0.0100
      4 C          -4.0224   -0.4358   -0.2861 C.ar    1  UNL1        0.0078
      5 C          -2.6724   -0.7254   -0.5674 C.ar    1  UNL1        0.0088
      6 C          -1.6541   -0.0054    0.1518 C.ar    1  UNL1        0.0074
      7 C          -2.1220    0.8149    1.1821 C.ar    1  UNL1        0.0303
      8 S          -0.7558    1.3847    2.0980 S.2     1  UNL1       -0.0875
      9 C           0.4010    0.6295    1.0653 C.ar    1  UNL1        0.0218
     10 C           1.8233    0.6609    1.2182 C.ar    1  UNL1       -0.0390
     11 C           2.7042    0.0897    0.2742 C.ar    1  UNL1       -0.0061
     12 C           4.1569    0.1059    0.3985 C.ar    1  UNL1       -0.0172
     13 C           4.8592    1.3197    0.4638 C.ar    1  UNL1       -0.0540
     14 C           6.2507    1.3383    0.5886 C.ar    1  UNL1       -0.0612
     15 C           6.9609    0.1420    0.6547 C.ar    1  UNL1       -0.0617
     16 C           6.2814   -1.0723    0.5977 C.ar    1  UNL1       -0.0612
     17 C           4.8900   -1.0895    0.4722 C.ar    1  UNL1       -0.0540
     18 C           2.0025   -0.4216   -0.8160 C.ar    1  UNL1        0.0282
     19 C           2.5530   -0.9148   -1.9782 C.ar    1  UNL1        0.1000
     20 O           1.5692   -1.2227   -2.8782 O.2     1  UNL1       -0.4698
     21 C           0.3693   -0.9216   -2.2892 C.ar    1  UNL1        0.1000
     22 C           0.6087   -0.4878   -1.0211 C.ar    1  UNL1        0.0292
     23 C          -0.2586   -0.0021    0.0161 C.ar    1  UNL1        0.0083
     24 C          -3.5274    1.0827    1.4212 C.ar    1  UNL1        0.0152
     25 C          -3.9620    1.9605    2.4237 C.ar    1  UNL1        0.0364
     26 N          -5.2617    2.2533    2.6884 N.ar    1  UNL1       -0.2626
     27 C          -6.1964    1.6448    1.9271 C.ar    1  UNL1        0.0282
     28 C          -5.9048    0.7517    0.9127 C.ar    1  UNL1       -0.0352
     29 C          -4.5484    0.4675    0.6564 C.ar    1  UNL1       -0.0048
     30 H          -1.7817   -2.3850   -1.8068 H       1  UNL1        0.0813
     31 H          -4.1614   -2.8142   -2.4265 H       1  UNL1        0.1648
     32 H          -5.8327   -1.3981   -1.2218 H       1  UNL1        0.0813
     33 H           2.2408    1.1523    2.0972 H       1  UNL1        0.0635
     34 H           4.3230    2.2652    0.4077 H       1  UNL1        0.0624
     35 H           6.7785    2.2875    0.6332 H       1  UNL1        0.0618
     36 H           8.0433    0.1562    0.7527 H       1  UNL1        0.0618
     37 H           6.8325   -2.0074    0.6543 H       1  UNL1        0.0618
     38 H           4.3760   -2.0484    0.4403 H       1  UNL1        0.0624
     39 H           3.5629   -1.0688   -2.3330 H       1  UNL1        0.1036
     40 H          -0.4901   -1.0401   -2.9296 H       1  UNL1        0.1036
     41 H          -3.2616    2.4837    3.0692 H       1  UNL1        0.0836
     42 H          -7.2245    1.9010    2.1671 H       1  UNL1        0.0830
     43 H          -6.7023    0.2894    0.3447 H       1  UNL1        0.0639
@<TRIPOS>BOND
     1     1     2   ar
     2     2     3   ar
     3     3     4   ar
     4     4     5   ar
     5     5     6   ar
     6     6     7   ar
     7     7     8   ar
     8     8     9   ar
     9     9    10   ar
    10    10    11   ar
    11    11    12    1
    12    12    13   ar
    13    13    14   ar
    14    14    15   ar
    15    15    16   ar
    16    16    17   ar
    17    11    18   ar
    18    18    19   ar
    19    19    20   ar
    20    20    21   ar
    21    21    22   ar
    22    22    23   ar
    23     7    24   ar
    24    24    25   ar
    25    25    26   ar
    26    26    27   ar
    27    27    28   ar
    28    28    29   ar
    29     5     1   ar
    30    23     6   ar
    31    29    24   ar
    32    29     4   ar
    33    23     9   ar
    34    17    12   ar
    35    22    18   ar
    36     1    30    1
    37     2    31    1
    38     3    32    1
    39    10    33    1
    40    13    34    1
    41    14    35    1
    42    15    36    1
    43    16    37    1
    44    17    38    1
    45    19    39    1
    46    21    40    1
    47    25    41    1
    48    27    42    1
    49    28    43    1
