@<TRIPOS>MOLECULE
*****
 40 46 0 0 0
SMALL
GASTEIGER

@<TRIPOS>ATOM
      1 C          -1.3786    2.7264    0.2895 C.ar    1  UNL1        0.0101
      2 N          -2.5595    3.4372    0.3885 N.ar    1  UNL1       -0.3659
      3 C          -3.6484    2.5796    0.3412 C.ar    1  UNL1        0.0100
      4 C          -3.1722    1.2927    0.2095 C.ar    1  UNL1        0.0079
      5 C          -1.7715    1.4279    0.1817 C.ar    1  UNL1        0.0111
      6 C          -1.0537    0.2258    0.0509 C.ar    1  UNL1        0.0333
      7 C           0.3214    0.0707   -0.0027 C.ar    1  UNL1        0.0732
      8 N           1.5279    0.7030    0.0206 N.ar    1  UNL1       -0.3523
      9 C           2.5368   -0.2444   -0.0952 C.ar    1  UNL1        0.0525
     10 C           1.9280   -1.4961   -0.1925 C.ar    1  UNL1       -0.0123
     11 C           0.5338   -1.2640   -0.1312 C.ar    1  UNL1        0.0659
     12 N          -0.6809   -1.9231   -0.1567 N.ar    1  UNL1       -0.3524
     13 C          -1.7000   -0.9903   -0.0420 C.ar    1  UNL1        0.0574
     14 C          -3.1295   -1.0874   -0.0099 C.ar    1  UNL1        0.0067
     15 C          -3.7645   -2.3379   -0.1063 C.ar    1  UNL1       -0.0520
     16 C          -5.1605   -2.4200   -0.0737 C.ar    1  UNL1       -0.0611
     17 C          -5.9420   -1.2680    0.0543 C.ar    1  UNL1       -0.0611
     18 C          -5.3407   -0.0124    0.1521 C.ar    1  UNL1       -0.0533
     19 C          -3.9340    0.0951    0.1216 C.ar    1  UNL1       -0.0068
     20 C           3.9606    0.1245   -0.1023 C.ar    1  UNL1        0.0446
     21 C           4.4399    1.4414    0.0046 C.ar    1  UNL1        0.0389
     22 N           5.7418    1.8860    0.0079 N.ar    1  UNL1       -0.2603
     23 C           6.7714    1.0026   -0.1025 C.ar    1  UNL1        0.0557
     24 C           6.4623   -0.3656   -0.2189 C.ar    1  UNL1        0.1185
     25 N           7.3490   -1.3674   -0.3361 N.ar    1  UNL1       -0.1892
     26 S           6.4636   -2.7640   -0.4386 S.2     1  UNL1        0.1165
     27 N           4.9258   -2.1617   -0.3393 N.ar    1  UNL1       -0.1900
     28 C           5.0181   -0.8229   -0.2194 C.ar    1  UNL1        0.1119
     29 H          -0.4207    3.2236    0.3076 H       1  UNL1        0.0813
     30 H          -2.6244    4.4423    0.4825 H       1  UNL1        0.1648
     31 H          -4.6506    2.9795    0.4065 H       1  UNL1        0.0813
     32 H           1.6080    1.7069    0.1103 H       1  UNL1        0.1660
     33 H           2.4159   -2.4557   -0.2944 H       1  UNL1        0.0659
     34 H          -0.7714   -2.9256   -0.2460 H       1  UNL1        0.1660
     35 H          -3.1891   -3.2529   -0.2066 H       1  UNL1        0.0624
     36 H          -5.6438   -3.3912   -0.1489 H       1  UNL1        0.0618
     37 H          -7.0257   -1.3505    0.0778 H       1  UNL1        0.0618
     38 H          -5.9609    0.8729    0.2511 H       1  UNL1        0.0624
     39 H           3.7386    2.2688    0.1004 H       1  UNL1        0.0837
     40 H           7.7797    1.3945   -0.0955 H       1  UNL1        0.0852
@<TRIPOS>BOND
     1     1     2   ar
     2     2     3   ar
     3     3     4   ar
     4     4     5   ar
     5     5     6   ar
     6     6     7   ar
     7     7     8   ar
     8     8     9   ar
     9     9    10   ar
    10    10    11   ar
    11    11    12   ar
    12    12    13   ar
    13    13    14   ar
    14    14    15   ar
    15    15    16   ar
    16    16    17   ar
    17    17    18   ar
    18    18    19   ar
    19     9    20    1
    20    20    21   ar
    21    21    22   ar
    22    22    23   ar
    23    23    24   ar
    24    24    25   ar
    25    25    26   ar
    26    26    27   ar
    27    27    28   ar
    28     5     1   ar
    29    13     6   ar
    30    19    14   ar
    31    28    20   ar
    32    19     4   ar
    33    28    24   ar
    34    11     7   ar
    35     1    29    1
    36     2    30    1
    37     3    31    1
    38     8    32    1
    39    10    33    1
    40    12    34    1
    41    15    35    1
    42    16    36    1
    43    17    37    1
    44    18    38    1
    45    21    39    1
    46    23    40    1
