@<TRIPOS>MOLECULE
*****
 47 53 0 0 0
SMALL
GASTEIGER

@<TRIPOS>ATOM
      1 C          -0.9113   -3.7583    0.7093 C.ar    1  UNL1        0.0101
      2 N          -2.1028   -4.4301    0.8766 N.ar    1  UNL1       -0.3659
      3 C          -3.1642   -3.5507    0.7609 C.ar    1  UNL1        0.0100
      4 C          -2.6541   -2.2909    0.5151 C.ar    1  UNL1        0.0078
      5 C          -1.2670   -2.4606    0.4908 C.ar    1  UNL1        0.0097
      6 C          -0.4728   -1.3075    0.2529 C.ar    1  UNL1        0.0171
      7 C           0.9252   -1.1956    0.1777 C.ar    1  UNL1        0.0081
      8 C           2.0456   -2.0366    0.2841 C.ar    1  UNL1       -0.0514
      9 C           3.3388   -1.4994    0.1369 C.ar    1  UNL1       -0.0519
     10 C           3.5685   -0.1353   -0.1165 C.ar    1  UNL1        0.0023
     11 C           2.4324    0.6969   -0.2207 C.ar    1  UNL1       -0.0286
     12 C           1.1467    0.1519   -0.0723 C.ar    1  UNL1        0.0481
     13 N          -0.0838    0.7762   -0.1355 N.ar    1  UNL1       -0.3536
     14 C          -1.1403   -0.0967    0.0623 C.ar    1  UNL1        0.0565
     15 C          -2.5989    0.0883    0.0867 C.ar    1  UNL1        0.0144
     16 C          -3.3840   -1.0950    0.3297 C.ar    1  UNL1       -0.0062
     17 C          -4.7872   -1.0548    0.3779 C.ar    1  UNL1       -0.0527
     18 C          -5.4516    0.1465    0.1889 C.ar    1  UNL1       -0.0534
     19 C          -4.7506    1.3303   -0.0509 C.ar    1  UNL1       -0.0172
     20 C          -5.5022    2.5045   -0.2316 C.ar    1  UNL1       -0.0540
     21 C          -4.8883    3.7260   -0.4748 C.ar    1  UNL1       -0.0612
     22 C          -3.5093    3.7828   -0.5396 C.ar    1  UNL1       -0.0611
     23 C          -2.7506    2.6183   -0.3609 C.ar    1  UNL1       -0.0534
     24 C          -3.3238    1.3426   -0.1095 C.ar    1  UNL1       -0.0082
     25 C           4.9342    0.4421   -0.2738 C.ar    1  UNL1        0.0710
     26 C           6.1135   -0.3015   -0.1870 C.ar    1  UNL1       -0.0357
     27 C           7.3476    0.3311   -0.3491 C.ar    1  UNL1       -0.0583
     28 C           7.3889    1.6943   -0.5950 C.ar    1  UNL1       -0.0436
     29 C           6.1878    2.3707   -0.6688 C.ar    1  UNL1        0.0283
     30 N           4.9814    1.7811   -0.5156 N.ar    1  UNL1       -0.2550
     31 H           0.0311   -4.2805    0.7656 H       1  UNL1        0.0813
     32 H          -2.1901   -5.4215    1.0577 H       1  UNL1        0.1648
     33 H          -4.1744   -3.9201    0.8670 H       1  UNL1        0.0813
     34 H           1.9317   -3.0969    0.4785 H       1  UNL1        0.0624
     35 H           4.1640   -2.1994    0.2297 H       1  UNL1        0.0624
     36 H           2.5484    1.7606   -0.4157 H       1  UNL1        0.0645
     37 H          -0.1587    1.7609   -0.3088 H       1  UNL1        0.1659
     38 H          -5.3709   -1.9512    0.5615 H       1  UNL1        0.0624
     39 H          -6.5391    0.1451    0.2321 H       1  UNL1        0.0624
     40 H          -6.5894    2.4760   -0.1836 H       1  UNL1        0.0624
     41 H          -5.4850    4.6230   -0.6120 H       1  UNL1        0.0618
     42 H          -3.0116    4.7305   -0.7292 H       1  UNL1        0.0618
     43 H          -1.6852    2.7583   -0.4283 H       1  UNL1        0.0624
     44 H           6.1059   -1.3674    0.0043 H       1  UNL1        0.0639
     45 H           8.2677   -0.2427   -0.2825 H       1  UNL1        0.0619
     46 H           8.3301    2.2154   -0.7254 H       1  UNL1        0.0633
     47 H           6.1575    3.4395   -0.8591 H       1  UNL1        0.0830
@<TRIPOS>BOND
     1     1     2   ar
     2     2     3   ar
     3     3     4   ar
     4     4     5   ar
     5     5     6   ar
     6     6     7   ar
     7     7     8   ar
     8     8     9   ar
     9     9    10   ar
    10    10    11   ar
    11    11    12   ar
    12    12    13   ar
    13    13    14   ar
    14    14    15   ar
    15    15    16   ar
    16    16    17   ar
    17    17    18   ar
    18    18    19   ar
    19    19    20   ar
    20    20    21   ar
    21    21    22   ar
    22    22    23   ar
    23    23    24   ar
    24    10    25    1
    25    25    26   ar
    26    26    27   ar
    27    27    28   ar
    28    28    29   ar
    29    29    30   ar
    30     5     1   ar
    31    14     6   ar
    32    24    15   ar
    33    30    25   ar
    34    16     4   ar
    35    24    19   ar
    36    12     7   ar
    37     1    31    1
    38     2    32    1
    39     3    33    1
    40     8    34    1
    41     9    35    1
    42    11    36    1
    43    13    37    1
    44    17    38    1
    45    18    39    1
    46    20    40    1
    47    21    41    1
    48    22    42    1
    49    23    43    1
    50    26    44    1
    51    27    45    1
    52    28    46    1
    53    29    47    1
