@<TRIPOS>MOLECULE
*****
 50 57 0 0 0
SMALL
GASTEIGER

@<TRIPOS>ATOM
      1 C          -0.1775   -3.9180    1.0172 C.ar    1  UNL1        0.0101
      2 N          -1.4529   -4.3770    1.2389 N.ar    1  UNL1       -0.3659
      3 C          -2.3687   -3.3568    1.0221 C.ar    1  UNL1        0.0100
      4 C          -1.7019   -2.2289    0.5777 C.ar    1  UNL1        0.0085
      5 C          -0.3538   -2.6178    0.6567 C.ar    1  UNL1        0.0108
      6 C           0.6243   -1.6539    0.3920 C.ar    1  UNL1        0.0305
      7 C           2.0113   -1.7414    0.3649 C.ar    1  UNL1       -0.0074
      8 C           2.4162   -0.4520    0.0763 C.ar    1  UNL1        0.1370
      9 O           1.3197    0.3636   -0.0607 O.2     1  UNL1       -0.4541
     10 C           0.1760   -0.3775    0.1505 C.ar    1  UNL1        0.1446
     11 C          -1.2027    0.0704    0.1148 C.ar    1  UNL1        0.0339
     12 C          -1.5597    1.4607   -0.0340 C.ar    1  UNL1       -0.0060
     13 C          -0.6093    2.5240   -0.0618 C.ar    1  UNL1       -0.0533
     14 C          -0.9538    3.8691   -0.1855 C.ar    1  UNL1       -0.0611
     15 C          -2.2806    4.2136   -0.2802 C.ar    1  UNL1       -0.0611
     16 C          -3.2440    3.2076   -0.2477 C.ar    1  UNL1       -0.0534
     17 C          -2.9347    1.8211   -0.1252 C.ar    1  UNL1       -0.0095
     18 C          -3.9608    0.8104   -0.1153 C.ar    1  UNL1       -0.0096
     19 C          -5.3444    1.1254   -0.2578 C.ar    1  UNL1       -0.0534
     20 C          -6.3504    0.1631   -0.3250 C.ar    1  UNL1       -0.0611
     21 C          -6.0052   -1.1668   -0.2779 C.ar    1  UNL1       -0.0611
     22 C          -4.6644   -1.5122   -0.1202 C.ar    1  UNL1       -0.0534
     23 C          -3.6173   -0.5617    0.0215 C.ar    1  UNL1       -0.0088
     24 C          -2.2385   -0.9316    0.2361 C.ar    1  UNL1        0.0031
     25 C           3.6890    0.2028   -0.1188 C.ar    1  UNL1        0.0280
     26 C           3.8865    1.3405   -0.9471 C.ar    1  UNL1       -0.0504
     27 C           5.1579    1.9859   -1.1579 C.ar    1  UNL1       -0.0604
     28 C           6.3690    1.5691   -0.5612 C.ar    1  UNL1       -0.0510
     29 C           6.1502    0.4651    0.2509 C.ar    1  UNL1        0.0205
     30 C           7.0857   -0.1953    1.0001 C.ar    1  UNL1        0.0994
     31 O           6.4821   -1.2140    1.6838 O.2     1  UNL1       -0.4698
     32 C           5.1509   -1.1959    1.3634 C.ar    1  UNL1        0.1001
     33 C           4.8965   -0.1877    0.4679 C.ar    1  UNL1        0.0305
     34 H           0.6907   -4.5436    1.1699 H       1  UNL1        0.0813
     35 H          -1.6906   -5.3056    1.5639 H       1  UNL1        0.1648
     36 H          -3.4032   -3.5590    1.2530 H       1  UNL1        0.0813
     37 H           2.6382   -2.6072    0.5112 H       1  UNL1        0.0662
     38 H           0.4532    2.3336    0.0379 H       1  UNL1        0.0624
     39 H          -0.1806    4.6318   -0.1973 H       1  UNL1        0.0618
     40 H          -2.5764    5.2544   -0.3741 H       1  UNL1        0.0618
     41 H          -4.2708    3.5516   -0.3224 H       1  UNL1        0.0624
     42 H          -5.6830    2.1536   -0.3386 H       1  UNL1        0.0624
     43 H          -7.3878    0.4616   -0.4447 H       1  UNL1        0.0618
     44 H          -6.7625   -1.9390   -0.3762 H       1  UNL1        0.0618
     45 H          -4.4461   -2.5718   -0.1709 H       1  UNL1        0.0624
     46 H           3.0232    1.7559   -1.4708 H       1  UNL1        0.0625
     47 H           5.1809    2.8512   -1.8221 H       1  UNL1        0.0618
     48 H           7.3166    2.0623   -0.7233 H       1  UNL1        0.0625
     49 H           8.1477   -0.0863    1.1674 H       1  UNL1        0.1035
     50 H           4.5557   -1.9469    1.8616 H       1  UNL1        0.1036
@<TRIPOS>BOND
     1     1     2   ar
     2     2     3   ar
     3     3     4   ar
     4     4     5   ar
     5     5     6   ar
     6     6     7   ar
     7     7     8   ar
     8     8     9   ar
     9     9    10   ar
    10    10    11   ar
    11    11    12   ar
    12    12    13   ar
    13    13    14   ar
    14    14    15   ar
    15    15    16   ar
    16    16    17   ar
    17    17    18   ar
    18    18    19   ar
    19    19    20   ar
    20    20    21   ar
    21    21    22   ar
    22    22    23   ar
    23    23    24   ar
    24     8    25    1
    25    25    26   ar
    26    26    27   ar
    27    27    28   ar
    28    28    29   ar
    29    29    30   ar
    30    30    31   ar
    31    31    32   ar
    32    32    33   ar
    33     5     1   ar
    34    10     6   ar
    35    24    11   ar
    36    33    25   ar
    37    24     4   ar
    38    33    29   ar
    39    17    12   ar
    40    23    18   ar
    41     1    34    1
    42     2    35    1
    43     3    36    1
    44     7    37    1
    45    13    38    1
    46    14    39    1
    47    15    40    1
    48    16    41    1
    49    19    42    1
    50    20    43    1
    51    21    44    1
    52    22    45    1
    53    26    46    1
    54    27    47    1
    55    28    48    1
    56    30    49    1
    57    32    50    1
