@<TRIPOS>MOLECULE
*****
 41 47 0 0 0
SMALL
GASTEIGER

@<TRIPOS>ATOM
      1 C           0.1339   -3.8424   -1.2652 C.ar    1  UNL1        0.0101
      2 N           1.4080   -4.3276   -1.4877 N.ar    1  UNL1       -0.3659
      3 C           2.3552   -3.3572   -1.1922 C.ar    1  UNL1        0.0100
      4 C           1.6897   -2.2261   -0.7720 C.ar    1  UNL1        0.0079
      5 C           0.3262   -2.5670   -0.8318 C.ar    1  UNL1        0.0108
      6 C          -0.6102   -1.5794   -0.4497 C.ar    1  UNL1        0.0305
      7 C          -1.9979   -1.5777   -0.3897 C.ar    1  UNL1       -0.0074
      8 C          -2.3203   -0.3033    0.0654 C.ar    1  UNL1        0.1384
      9 O          -1.1722    0.4261    0.2688 O.2     1  UNL1       -0.4541
     10 C          -0.1006   -0.3650   -0.0510 C.ar    1  UNL1        0.1441
     11 C           1.2823   -0.0268    0.0070 C.ar    1  UNL1        0.0277
     12 C           1.6894    1.2504    0.4319 C.ar    1  UNL1       -0.0245
     13 C           3.0331    1.5967    0.4943 C.ar    1  UNL1        0.0717
     14 N           3.3710    2.8310    0.9072 N.ar    1  UNL1       -0.2550
     15 C           4.6826    3.1494    0.9614 C.ar    1  UNL1        0.0283
     16 C           5.7017    2.2828    0.6177 C.ar    1  UNL1       -0.0430
     17 C           5.3552    1.0071    0.1907 C.ar    1  UNL1       -0.0511
     18 C           4.0061    0.6366    0.1202 C.ar    1  UNL1        0.0010
     19 C           3.6260   -0.6475   -0.3083 C.ar    1  UNL1       -0.0441
     20 C           2.2617   -0.9908   -0.3688 C.ar    1  UNL1       -0.0045
     21 C          -3.5864    0.3624    0.3500 C.ar    1  UNL1        0.0454
     22 C          -4.8297   -0.2974    0.1747 C.ar    1  UNL1       -0.0489
     23 C          -6.0874    0.2970    0.4343 C.ar    1  UNL1       -0.0589
     24 C          -6.2266    1.6126    0.8959 C.ar    1  UNL1       -0.0335
     25 C          -5.0271    2.3358    1.0951 C.ar    1  UNL1        0.1006
     26 N          -4.9586    3.6031    1.5311 N.ar    1  UNL1       -0.1908
     27 S          -3.3475    3.9885    1.5957 S.2     1  UNL1        0.1165
     28 N          -2.6702    2.5730    1.0765 N.ar    1  UNL1       -0.1901
     29 C          -3.6705    1.7100    0.8204 C.ar    1  UNL1        0.1105
     30 H          -0.7426   -4.4506   -1.4383 H       1  UNL1        0.0813
     31 H           1.6229   -5.2592   -1.8195 H       1  UNL1        0.1648
     32 H           3.4063   -3.5793   -1.3141 H       1  UNL1        0.0813
     33 H          -2.6835   -2.3737   -0.6361 H       1  UNL1        0.0662
     34 H           0.9453    1.9910    0.7201 H       1  UNL1        0.0646
     35 H           4.8966    4.1586    1.3017 H       1  UNL1        0.0830
     36 H           6.7384    2.5922    0.6805 H       1  UNL1        0.0633
     37 H           6.1392    0.3068   -0.0853 H       1  UNL1        0.0625
     38 H           4.3794   -1.3761   -0.5928 H       1  UNL1        0.0630
     39 H          -4.8365   -1.3280   -0.1819 H       1  UNL1        0.0625
     40 H          -6.9881   -0.2948    0.2678 H       1  UNL1        0.0618
     41 H          -7.1942    2.0587    1.0918 H       1  UNL1        0.0640
@<TRIPOS>BOND
     1     1     2   ar
     2     2     3   ar
     3     3     4   ar
     4     4     5   ar
     5     5     6   ar
     6     6     7   ar
     7     7     8   ar
     8     8     9   ar
     9     9    10   ar
    10    10    11   ar
    11    11    12   ar
    12    12    13   ar
    13    13    14   ar
    14    14    15   ar
    15    15    16   ar
    16    16    17   ar
    17    17    18   ar
    18    18    19   ar
    19    19    20   ar
    20     8    21    1
    21    21    22   ar
    22    22    23   ar
    23    23    24   ar
    24    24    25   ar
    25    25    26   ar
    26    26    27   ar
    27    27    28   ar
    28    28    29   ar
    29     5     1   ar
    30    10     6   ar
    31    20    11   ar
    32    29    21   ar
    33    20     4   ar
    34    29    25   ar
    35    18    13   ar
    36     1    30    1
    37     2    31    1
    38     3    32    1
    39     7    33    1
    40    12    34    1
    41    15    35    1
    42    16    36    1
    43    17    37    1
    44    19    38    1
    45    22    39    1
    46    23    40    1
    47    24    41    1
