@<TRIPOS>MOLECULE
*****
 41 48 0 0 0
SMALL
GASTEIGER

@<TRIPOS>ATOM
      1 C           0.1607    2.9653    1.7481 C.ar    1  UNL1        0.0101
      2 N          -1.1154    3.4054    2.0003 N.ar    1  UNL1       -0.3659
      3 C          -2.0414    2.5162    1.4703 C.ar    1  UNL1        0.0101
      4 C          -1.3817    1.4879    0.8317 C.ar    1  UNL1        0.0100
      5 C          -0.0204    1.8091    1.0549 C.ar    1  UNL1        0.0109
      6 C           0.9652    0.9352    0.5736 C.ar    1  UNL1        0.0320
      7 C           2.3530    0.9556    0.6260 C.ar    1  UNL1       -0.0073
      8 C           2.7342   -0.2108   -0.0221 C.ar    1  UNL1        0.1399
      9 O           1.6179   -0.9018   -0.4425 O.2     1  UNL1       -0.4525
     10 C           0.5061   -0.1825   -0.0695 C.ar    1  UNL1        0.1621
     11 C          -0.8602   -0.5058   -0.2889 C.ar    1  UNL1        0.1150
     12 N          -1.0196   -1.6848   -0.9358 N.ar    1  UNL1       -0.2506
     13 C          -2.2766   -2.0880   -1.1916 C.ar    1  UNL1        0.0362
     14 C          -3.4334   -1.3906   -0.8705 C.ar    1  UNL1        0.0030
     15 C          -4.6728   -1.9811   -1.2390 C.ar    1  UNL1       -0.0504
     16 C          -5.9177   -1.3947   -1.0065 C.ar    1  UNL1       -0.0329
     17 C          -5.8801   -0.1377   -0.3812 C.ar    1  UNL1        0.1005
     18 N          -6.9688    0.5911   -0.0929 N.ar    1  UNL1       -0.1908
     19 S          -6.4266    1.9862    0.6054 S.2     1  UNL1        0.1165
     20 N          -4.7983    1.7201    0.5770 N.ar    1  UNL1       -0.1901
     21 C          -4.5710    0.5169    0.0270 C.ar    1  UNL1        0.1082
     22 C          -3.2844   -0.1270   -0.1988 C.ar    1  UNL1        0.0216
     23 C          -1.9333    0.3411    0.1406 C.ar    1  UNL1        0.0230
     24 C           3.9983   -0.8438   -0.3426 C.ar    1  UNL1        0.0635
     25 C           4.1175   -2.0623   -1.0257 C.ar    1  UNL1        0.0404
     26 N           5.2699   -2.7319   -1.3701 N.ar    1  UNL1       -0.2603
     27 C           6.4911   -2.2207   -1.0474 C.ar    1  UNL1        0.0557
     28 C           6.5356   -0.9948   -0.3554 C.ar    1  UNL1        0.1186
     29 N           7.6427   -0.3466    0.0414 N.ar    1  UNL1       -0.1892
     30 S           7.1299    1.0329    0.8039 S.2     1  UNL1        0.1165
     31 N           5.4866    0.8700    0.6655 N.ar    1  UNL1       -0.1900
     32 C           5.2523   -0.2830    0.0091 C.ar    1  UNL1        0.1134
     33 H           1.0317    3.5064    2.0908 H       1  UNL1        0.0813
     34 H          -1.3546    4.2450    2.5124 H       1  UNL1        0.1648
     35 H          -3.0803    2.7410    1.6347 H       1  UNL1        0.0813
     36 H           3.0027    1.6974    1.0668 H       1  UNL1        0.0662
     37 H          -2.3199   -3.0486   -1.7030 H       1  UNL1        0.0836
     38 H          -4.6740   -2.9524   -1.7398 H       1  UNL1        0.0625
     39 H          -6.8490   -1.8640   -1.2988 H       1  UNL1        0.0640
     40 H           3.2159   -2.5875   -1.3473 H       1  UNL1        0.0837
     41 H           7.3685   -2.7823   -1.3388 H       1  UNL1        0.0852
@<TRIPOS>BOND
     1     1     2   ar
     2     2     3   ar
     3     3     4   ar
     4     4     5   ar
     5     5     6   ar
     6     6     7   ar
     7     7     8   ar
     8     8     9   ar
     9     9    10   ar
    10    10    11   ar
    11    11    12   ar
    12    12    13   ar
    13    13    14   ar
    14    14    15   ar
    15    15    16   ar
    16    16    17   ar
    17    17    18   ar
    18    18    19   ar
    19    19    20   ar
    20    20    21   ar
    21    21    22   ar
    22    22    23   ar
    23     8    24    1
    24    24    25   ar
    25    25    26   ar
    26    26    27   ar
    27    27    28   ar
    28    28    29   ar
    29    29    30   ar
    30    30    31   ar
    31    31    32   ar
    32     5     1   ar
    33    10     6   ar
    34    23    11   ar
    35    32    24   ar
    36    23     4   ar
    37    32    28   ar
    38    22    14   ar
    39    21    17   ar
    40     1    33    1
    41     2    34    1
    42     3    35    1
    43     7    36    1
    44    13    37    1
    45    15    38    1
    46    16    39    1
    47    25    40    1
    48    27    41    1
