@<TRIPOS>MOLECULE
*****
 44 50 0 0 0
SMALL
GASTEIGER

@<TRIPOS>ATOM
      1 SI         -1.6758    0.3847    0.5645 Si      1  UNL1        0.0000
      2 C          -3.0974   -0.7669    0.0944 C.2     1  UNL1        0.0000
      3 C          -2.6313   -1.9683   -0.2982 C.2     1  UNL1        0.0000
      4 C          -1.1814   -2.1051   -0.3016 C.2     1  UNL1        0.0000
      5 C          -0.4784   -1.0255    0.1099 C.2     1  UNL1        0.0000
      6 C           0.9612   -0.8279    0.2345 C.ar    1  UNL1        0.0000
      7 N           1.4460    0.4504    0.3523 N.ar    1  UNL1        0.0000
      8 C           2.7881    0.7049    0.4669 C.ar    1  UNL1        0.0000
      9 C           3.8277   -0.2231    0.4896 C.ar    1  UNL1        0.0000
     10 C           5.2240    0.1450    0.5970 C.ar    1  UNL1        0.0000
     11 S           6.2207   -0.4483    1.9017 S.2     1  UNL1        0.0000
     12 C           7.6281    0.4198    1.3781 C.ar    1  UNL1        0.0000
     13 C           7.2889    1.1153    0.2784 C.ar    1  UNL1        0.0000
     14 O           8.0983    1.9381   -0.4410 O.2     1  UNL1        0.0000
     15 C           7.2053    2.3473   -1.4152 C.ar    1  UNL1        0.0000
     16 C           5.9221    1.7989   -1.2859 C.ar    1  UNL1        0.0000
     17 C           5.9910    0.9761   -0.1471 C.ar    1  UNL1        0.0000
     18 C           3.3929   -1.5644    0.3614 C.ar    1  UNL1        0.0000
     19 N           4.1689   -2.6633    0.3194 N.ar    1  UNL1        0.0000
     20 S           3.1631   -3.9671    0.1769 S.2     1  UNL1        0.0000
     21 N           1.6915   -3.2144    0.1371 N.ar    1  UNL1        0.0000
     22 C           1.9146   -1.8895    0.2340 C.ar    1  UNL1        0.0000
     23 C          -4.4855   -0.3912    0.2324 C.ar    1  UNL1        0.0000
     24 C          -5.3808   -0.9400    1.1849 C.ar    1  UNL1        0.0000
     25 C          -6.7657   -0.5583    1.3089 C.ar    1  UNL1        0.0000
     26 C          -7.4049    0.4027    0.4909 C.ar    1  UNL1        0.0000
     27 C          -6.5111    0.9115   -0.4415 C.ar    1  UNL1        0.0000
     28 C          -6.7737    1.8426   -1.4096 C.ar    1  UNL1        0.0000
     29 O          -5.6410    2.0666   -2.1441 O.2     1  UNL1        0.0000
     30 C          -4.6523    1.2676   -1.6343 C.ar    1  UNL1        0.0000
     31 C          -5.1375    0.5459   -0.5733 C.ar    1  UNL1        0.0000
     32 H          -1.6754    0.6916    2.0195 H       1  UNL1        0.0000
     33 H          -1.5945    1.5426   -0.3654 H       1  UNL1        0.0000
     34 H          -3.2622   -2.7985   -0.5939 H       1  UNL1        0.0000
     35 H          -0.7449   -3.0419   -0.6269 H       1  UNL1        0.0000
     36 H           3.0132    1.7687    0.5542 H       1  UNL1        0.0000
     37 H           8.5817    0.3779    1.8836 H       1  UNL1        0.0000
     38 H           7.6311    3.0315   -2.1380 H       1  UNL1        0.0000
     39 H           5.0846    1.9844   -1.9432 H       1  UNL1        0.0000
     40 H          -5.0053   -1.6963    1.8762 H       1  UNL1        0.0000
     41 H          -7.3565   -1.0475    2.0848 H       1  UNL1        0.0000
     42 H          -8.4451    0.6771    0.5908 H       1  UNL1        0.0000
     43 H          -7.6435    2.4083   -1.7111 H       1  UNL1        0.0000
     44 H          -3.6988    1.3379   -2.1383 H       1  UNL1        0.0000
@<TRIPOS>BOND
     1     1     2    1
     2     2     3    2
     3     3     4    1
     4     4     5    2
     5     5     6    1
     6     6     7   ar
     7     7     8   ar
     8     8     9   ar
     9     9    10    1
    10    10    11   ar
    11    11    12   ar
    12    12    13   ar
    13    13    14   ar
    14    14    15   ar
    15    15    16   ar
    16    16    17   ar
    17     9    18   ar
    18    18    19   ar
    19    19    20   ar
    20    20    21   ar
    21    21    22   ar
    22     2    23    1
    23    23    24   ar
    24    24    25   ar
    25    25    26   ar
    26    26    27   ar
    27    27    28   ar
    28    28    29   ar
    29    29    30   ar
    30    30    31   ar
    31     5     1    1
    32    22     6   ar
    33    31    23   ar
    34    17    10   ar
    35    22    18   ar
    36    31    27   ar
    37    17    13   ar
    38     1    32    1
    39     1    33    1
    40     3    34    1
    41     4    35    1
    42     8    36    1
    43    12    37    1
    44    15    38    1
    45    16    39    1
    46    24    40    1
    47    25    41    1
    48    26    42    1
    49    28    43    1
    50    30    44    1
