@<TRIPOS>MOLECULE
*****
 42 48 0 0 0
SMALL
GASTEIGER

@<TRIPOS>ATOM
      1 C          -0.8304    1.2401   -3.1942 C.ar    1  UNL1        0.0101
      2 N          -2.1494    1.4655   -3.5315 N.ar    1  UNL1       -0.3659
      3 C          -2.9815    1.1090   -2.4824 C.ar    1  UNL1        0.0101
      4 C          -2.2030    0.6442   -1.4441 C.ar    1  UNL1        0.0114
      5 C          -0.8849    0.7438   -1.9284 C.ar    1  UNL1        0.0109
      6 C           0.1594    0.3341   -1.0736 C.ar    1  UNL1        0.0320
      7 C           1.5386    0.2971   -1.2347 C.ar    1  UNL1       -0.0074
      8 C           2.0065   -0.2071   -0.0300 C.ar    1  UNL1        0.1370
      9 O           0.9519   -0.4764    0.8158 O.2     1  UNL1       -0.4526
     10 C          -0.2101   -0.1331    0.1663 C.ar    1  UNL1        0.1622
     11 C          -1.5433   -0.2307    0.6442 C.ar    1  UNL1        0.1164
     12 N          -1.6779   -0.7211    1.8963 N.ar    1  UNL1       -0.2505
     13 C          -2.9370   -0.8188    2.3663 C.ar    1  UNL1        0.0376
     14 C          -4.0852   -0.4560    1.6590 C.ar    1  UNL1        0.0191
     15 C          -5.3657   -0.5883    2.2193 C.ar    1  UNL1       -0.0497
     16 C          -6.4819   -0.2174    1.4849 C.ar    1  UNL1       -0.0430
     17 C          -6.2765    0.2734    0.2134 C.ar    1  UNL1        0.0283
     18 N          -5.0564    0.4116   -0.3511 N.ar    1  UNL1       -0.2542
     19 C          -3.9527    0.0543    0.3525 C.ar    1  UNL1        0.0823
     20 C          -2.6409    0.1701   -0.1705 C.ar    1  UNL1        0.0391
     21 C           3.3105   -0.5208    0.5109 C.ar    1  UNL1        0.0280
     22 C           3.5439   -1.4885    1.5256 C.ar    1  UNL1       -0.0504
     23 C           4.8421   -1.8207    2.0563 C.ar    1  UNL1       -0.0604
     24 C           6.0491   -1.2195    1.6358 C.ar    1  UNL1       -0.0510
     25 C           5.7971   -0.2699    0.6557 C.ar    1  UNL1        0.0205
     26 C           6.7219    0.5234    0.0328 C.ar    1  UNL1        0.0994
     27 O           6.0876    1.3494   -0.8528 O.2     1  UNL1       -0.4698
     28 C           4.7476    1.0751   -0.7874 C.ar    1  UNL1        0.1001
     29 C           4.5159    0.0693    0.1171 C.ar    1  UNL1        0.0305
     30 H          -0.0243    1.4552   -3.8815 H       1  UNL1        0.0813
     31 H          -2.4688    1.8375   -4.4167 H       1  UNL1        0.1648
     32 H          -4.0528    1.2240   -2.5848 H       1  UNL1        0.0813
     33 H           2.1238    0.5745   -2.0975 H       1  UNL1        0.0662
     34 H          -3.0028   -1.2161    3.3767 H       1  UNL1        0.0836
     35 H          -5.4951   -0.9792    3.2257 H       1  UNL1        0.0625
     36 H          -7.4819   -0.3088    1.8926 H       1  UNL1        0.0633
     37 H          -7.1106    0.5806   -0.4111 H       1  UNL1        0.0830
     38 H           2.6855   -2.0262    1.9345 H       1  UNL1        0.0625
     39 H           4.8885   -2.5850    2.8334 H       1  UNL1        0.0618
     40 H           7.0172   -1.4728    2.0432 H       1  UNL1        0.0625
     41 H           7.7946    0.6393    0.0928 H       1  UNL1        0.1035
     42 H           4.1310    1.6850   -1.4307 H       1  UNL1        0.1036
@<TRIPOS>BOND
     1     1     2   ar
     2     2     3   ar
     3     3     4   ar
     4     4     5   ar
     5     5     6   ar
     6     6     7   ar
     7     7     8   ar
     8     8     9   ar
     9     9    10   ar
    10    10    11   ar
    11    11    12   ar
    12    12    13   ar
    13    13    14   ar
    14    14    15   ar
    15    15    16   ar
    16    16    17   ar
    17    17    18   ar
    18    18    19   ar
    19    19    20   ar
    20     8    21    1
    21    21    22   ar
    22    22    23   ar
    23    23    24   ar
    24    24    25   ar
    25    25    26   ar
    26    26    27   ar
    27    27    28   ar
    28    28    29   ar
    29     5     1   ar
    30    10     6   ar
    31    20    11   ar
    32    29    21   ar
    33    20     4   ar
    34    29    25   ar
    35    19    14   ar
    36     1    30    1
    37     2    31    1
    38     3    32    1
    39     7    33    1
    40    13    34    1
    41    15    35    1
    42    16    36    1
    43    17    37    1
    44    22    38    1
    45    23    39    1
    46    24    40    1
    47    26    41    1
    48    28    42    1
