@<TRIPOS>MOLECULE
*****
 46 53 0 0 0
SMALL
GASTEIGER

@<TRIPOS>ATOM
      1 C          -3.1829    2.2066   -2.3199 C.ar    1  UNL1        0.0100
      2 N          -1.9989    2.6074   -2.8830 N.ar    1  UNL1       -0.3659
      3 C          -0.9527    1.9925   -2.2433 C.ar    1  UNL1        0.0101
      4 C          -1.4592    1.1756   -1.2547 C.ar    1  UNL1        0.0098
      5 C          -2.8852    1.3209   -1.3062 C.ar    1  UNL1        0.0078
      6 C          -3.8319    0.6651   -0.4944 C.ar    1  UNL1       -0.0074
      7 C          -5.2729    0.8763   -0.6385 C.ar    1  UNL1       -0.0527
      8 C          -6.2469    0.1913    0.0972 C.ar    1  UNL1       -0.0504
      9 C          -5.6300   -0.7311    0.9163 C.ar    1  UNL1        0.0205
     10 C          -6.2980   -1.6447    1.6856 C.ar    1  UNL1        0.0994
     11 O          -5.3973   -2.4725    2.2796 O.2     1  UNL1       -0.4698
     12 C          -4.1514   -2.0668    1.8886 C.ar    1  UNL1        0.1000
     13 C          -4.2191   -0.9491    1.0892 C.ar    1  UNL1        0.0282
     14 C          -3.1552   -0.2257    0.4434 C.ar    1  UNL1        0.0034
     15 C          -1.6430   -0.2844    0.5743 C.ar    1  UNL1        0.0214
     16 C          -0.9265   -0.9380    1.6450 C.ar    1  UNL1        0.1089
     17 N          -1.4621   -1.4827    2.7500 N.ar    1  UNL1       -0.1901
     18 S          -0.2530   -2.1116    3.6724 S.2     1  UNL1        0.1165
     19 N           1.0490   -1.7087    2.7462 N.ar    1  UNL1       -0.1901
     20 C           0.5804   -1.0300    1.6807 C.ar    1  UNL1        0.1097
     21 C           1.3928   -0.4425    0.6698 C.ar    1  UNL1        0.0298
     22 C           2.8066   -0.5598    0.6997 C.ar    1  UNL1       -0.0398
     23 C           3.5950    0.0409   -0.2787 C.ar    1  UNL1        0.0191
     24 C           2.8785    0.7518   -1.2301 C.ar    1  UNL1        0.0375
     25 N           1.5209    0.8741   -1.2717 N.ar    1  UNL1       -0.2536
     26 C           0.7410    0.2868   -0.3377 C.ar    1  UNL1        0.0815
     27 C          -0.7097    0.3795   -0.3406 C.ar    1  UNL1        0.0200
     28 C           5.0658   -0.0422   -0.3190 C.ar    1  UNL1        0.0724
     29 C           5.7961   -1.0582    0.3002 C.ar    1  UNL1       -0.0356
     30 C           7.1880   -1.0559    0.2113 C.ar    1  UNL1       -0.0583
     31 C           7.8243   -0.0446   -0.4932 C.ar    1  UNL1       -0.0436
     32 C           7.0376    0.9242   -1.0862 C.ar    1  UNL1        0.0283
     33 N           5.6875    0.9434   -1.0173 N.ar    1  UNL1       -0.2549
     34 H          -4.1154    2.5934   -2.7056 H       1  UNL1        0.0813
     35 H          -1.9054    3.2591   -3.6516 H       1  UNL1        0.1648
     36 H           0.0567    2.2103   -2.5633 H       1  UNL1        0.0813
     37 H          -5.6286    1.6016   -1.3689 H       1  UNL1        0.0624
     38 H          -7.3098    0.3377   -0.0244 H       1  UNL1        0.0625
     39 H          -7.3375   -1.8635    1.8836 H       1  UNL1        0.1035
     40 H          -3.3648   -2.7077    2.2508 H       1  UNL1        0.1036
     41 H           3.2673   -1.1127    1.5153 H       1  UNL1        0.0632
     42 H           3.3898    1.2724   -2.0384 H       1  UNL1        0.0836
     43 H           5.3059   -1.8614    0.8398 H       1  UNL1        0.0639
     44 H           7.7676   -1.8417    0.6879 H       1  UNL1        0.0619
     45 H           8.9043   -0.0135   -0.5806 H       1  UNL1        0.0633
     46 H           7.4827    1.7380   -1.6517 H       1  UNL1        0.0830
@<TRIPOS>BOND
     1     1     2   ar
     2     2     3   ar
     3     3     4   ar
     4     4     5   ar
     5     5     6   ar
     6     6     7   ar
     7     7     8   ar
     8     8     9   ar
     9     9    10   ar
    10    10    11   ar
    11    11    12   ar
    12    12    13   ar
    13    13    14   ar
    14    14    15   ar
    15    15    16   ar
    16    16    17   ar
    17    17    18   ar
    18    18    19   ar
    19    19    20   ar
    20    20    21   ar
    21    21    22   ar
    22    22    23   ar
    23    23    24   ar
    24    24    25   ar
    25    25    26   ar
    26    26    27   ar
    27    23    28    1
    28    28    29   ar
    29    29    30   ar
    30    30    31   ar
    31    31    32   ar
    32    32    33   ar
    33     5     1   ar
    34    14     6   ar
    35    27    15   ar
    36    33    28   ar
    37    27     4   ar
    38    13     9   ar
    39    20    16   ar
    40    26    21   ar
    41     1    34    1
    42     2    35    1
    43     3    36    1
    44     7    37    1
    45     8    38    1
    46    10    39    1
    47    12    40    1
    48    22    41    1
    49    24    42    1
    50    29    43    1
    51    30    44    1
    52    31    45    1
    53    32    46    1
