@<TRIPOS>MOLECULE
*****
 45 51 0 0 0
SMALL
GASTEIGER

@<TRIPOS>ATOM
      1 C          -3.1922   -2.6281   -1.8816 C.ar    1  UNL1        0.0100
      2 N          -2.0314   -3.2635   -2.2261 N.ar    1  UNL1       -0.3659
      3 C          -0.9567   -2.5786   -1.7062 C.ar    1  UNL1        0.0100
      4 C          -1.4219   -1.4812   -1.0130 C.ar    1  UNL1        0.0083
      5 C          -2.8533   -1.5229   -1.1318 C.ar    1  UNL1        0.0077
      6 C          -3.7728   -0.6079   -0.5877 C.ar    1  UNL1       -0.0075
      7 C          -5.2180   -0.7470   -0.7715 C.ar    1  UNL1       -0.0527
      8 C          -6.1672    0.1371   -0.2497 C.ar    1  UNL1       -0.0504
      9 C          -5.5231    1.1356    0.4493 C.ar    1  UNL1        0.0205
     10 C          -6.1699    2.1608    1.0834 C.ar    1  UNL1        0.0994
     11 O          -5.2528    2.9695    1.6747 O.2     1  UNL1       -0.4698
     12 C          -4.0161    2.4483    1.4103 C.ar    1  UNL1        0.1000
     13 C          -4.1064    1.3030    0.6500 C.ar    1  UNL1        0.0281
     14 C          -3.0640    0.4365    0.1457 C.ar    1  UNL1        0.0012
     15 C          -1.5605    0.4862    0.2744 C.ar    1  UNL1       -0.0082
     16 C          -0.9196    1.5108    0.9904 C.ar    1  UNL1       -0.0528
     17 C           0.4654    1.6182    1.1496 C.ar    1  UNL1       -0.0533
     18 C           1.3317    0.6887    0.5925 C.ar    1  UNL1       -0.0137
     19 C           2.7185    0.8451    0.7841 C.ar    1  UNL1       -0.0265
     20 C           3.6173   -0.0661    0.2411 C.ar    1  UNL1        0.0897
     21 N           3.1455   -1.1085   -0.4758 N.ar    1  UNL1       -0.2528
     22 C           1.8020   -1.2351   -0.6450 C.ar    1  UNL1        0.0366
     23 C           0.8040   -0.3816   -0.1464 C.ar    1  UNL1        0.0086
     24 C          -0.6582   -0.4895   -0.3108 C.ar    1  UNL1        0.0010
     25 C           5.0992    0.0247    0.3956 C.ar    1  UNL1        0.0891
     26 C           5.7446    1.0416    1.1069 C.ar    1  UNL1       -0.0342
     27 C           7.1381    1.0498    1.2013 C.ar    1  UNL1       -0.0583
     28 C           7.8700    0.0460    0.5866 C.ar    1  UNL1       -0.0436
     29 C           7.1747   -0.9288   -0.1002 C.ar    1  UNL1        0.0283
     30 N           5.8291   -0.9571   -0.2048 N.ar    1  UNL1       -0.2534
     31 H          -4.1401   -3.0318   -2.2080 H       1  UNL1        0.0813
     32 H          -1.9683   -4.1091   -2.7791 H       1  UNL1        0.1648
     33 H           0.0174   -2.9846   -1.9115 H       1  UNL1        0.0813
     34 H          -5.5987   -1.5875   -1.3496 H       1  UNL1        0.0624
     35 H          -7.2328    0.0298   -0.3884 H       1  UNL1        0.0625
     36 H          -7.2034    2.4513    1.2088 H       1  UNL1        0.1035
     37 H          -3.2271    3.0354    1.8474 H       1  UNL1        0.1036
     38 H          -1.4823    2.2946    1.4709 H       1  UNL1        0.0624
     39 H           0.8491    2.4580    1.7274 H       1  UNL1        0.0624
     40 H           3.0728    1.6900    1.3633 H       1  UNL1        0.0645
     41 H           1.5743   -2.1076   -1.2344 H       1  UNL1        0.0836
     42 H           5.1954    1.8368    1.5958 H       1  UNL1        0.0639
     43 H           7.6443    1.8373    1.7526 H       1  UNL1        0.0619
     44 H           8.9521    0.0226    0.6403 H       1  UNL1        0.0633
     45 H           7.6915   -1.7412   -0.6026 H       1  UNL1        0.0830
@<TRIPOS>BOND
     1     1     2   ar
     2     2     3   ar
     3     3     4   ar
     4     4     5   ar
     5     5     6   ar
     6     6     7   ar
     7     7     8   ar
     8     8     9   ar
     9     9    10   ar
    10    10    11   ar
    11    11    12   ar
    12    12    13   ar
    13    13    14   ar
    14    14    15   ar
    15    15    16   ar
    16    16    17   ar
    17    17    18   ar
    18    18    19   ar
    19    19    20   ar
    20    20    21   ar
    21    21    22   ar
    22    22    23   ar
    23    23    24   ar
    24    20    25    1
    25    25    26   ar
    26    26    27   ar
    27    27    28   ar
    28    28    29   ar
    29    29    30   ar
    30     5     1   ar
    31    14     6   ar
    32    24    15   ar
    33    30    25   ar
    34    24     4   ar
    35    13     9   ar
    36    23    18   ar
    37     1    31    1
    38     2    32    1
    39     3    33    1
    40     7    34    1
    41     8    35    1
    42    10    36    1
    43    12    37    1
    44    16    38    1
    45    17    39    1
    46    19    40    1
    47    22    41    1
    48    26    42    1
    49    27    43    1
    50    28    44    1
    51    29    45    1
