@<TRIPOS>MOLECULE
*****
 44 50 0 0 0
SMALL
GASTEIGER

@<TRIPOS>ATOM
      1 C          -3.1138    3.0884   -1.3565 C.ar    1  UNL1        0.0100
      2 N          -1.9324    3.5896   -1.8362 N.ar    1  UNL1       -0.3659
      3 C          -0.8999    2.7385   -1.5117 C.ar    1  UNL1        0.0100
      4 C          -1.4060    1.7065   -0.7493 C.ar    1  UNL1        0.0083
      5 C          -2.8256    1.9055   -0.7144 C.ar    1  UNL1        0.0077
      6 C          -3.7744    1.0468   -0.1261 C.ar    1  UNL1       -0.0081
      7 C          -5.1685    1.3043   -0.0518 C.ar    1  UNL1       -0.0534
      8 C          -6.0075    0.4063    0.5903 C.ar    1  UNL1       -0.0611
      9 C          -5.4614   -0.7268    1.1717 C.ar    1  UNL1       -0.0611
     10 C          -4.0821   -0.9767    1.0828 C.ar    1  UNL1       -0.0534
     11 C          -3.1718   -0.1333    0.3974 C.ar    1  UNL1       -0.0089
     12 C          -1.6954   -0.3863    0.2567 C.ar    1  UNL1        0.0002
     13 C          -0.9929   -1.6041    0.5247 C.ar    1  UNL1        0.0083
     14 C          -1.5327   -2.8554    0.7370 C.ar    1  UNL1        0.0100
     15 N          -0.5056   -3.7493    0.9379 N.ar    1  UNL1       -0.3659
     16 C           0.6986   -3.1134    0.7853 C.ar    1  UNL1        0.0100
     17 C           0.4288   -1.7971    0.4882 C.ar    1  UNL1        0.0078
     18 C           1.3971   -0.8180    0.1959 C.ar    1  UNL1       -0.0046
     19 C           2.8002   -1.0100    0.2257 C.ar    1  UNL1       -0.0243
     20 C           3.6396    0.0591   -0.0566 C.ar    1  UNL1        0.1085
     21 N           3.1169    1.2793   -0.3356 N.ar    1  UNL1       -0.2512
     22 C           1.7604    1.4177   -0.3583 C.ar    1  UNL1        0.0367
     23 C           0.7990    0.4176   -0.1484 C.ar    1  UNL1        0.0093
     24 C          -0.6925    0.5913   -0.2124 C.ar    1  UNL1        0.0016
     25 C           5.1200   -0.0727   -0.0489 C.ar    1  UNL1        0.1812
     26 N           5.6387   -1.2780    0.2378 N.ar    1  UNL1       -0.2145
     27 C           6.9685   -1.3296    0.2279 C.ar    1  UNL1        0.1201
     28 N           7.7925   -0.3200   -0.0340 N.ar    1  UNL1       -0.2241
     29 C           7.1703    0.8239   -0.3043 C.ar    1  UNL1        0.1201
     30 N           5.8559    1.0121   -0.3286 N.ar    1  UNL1       -0.2145
     31 H          -4.0416    3.6103   -1.5448 H       1  UNL1        0.0813
     32 H          -1.8375    4.4339   -2.3863 H       1  UNL1        0.1648
     33 H           0.0801    2.9626   -1.9029 H       1  UNL1        0.0813
     34 H          -5.5909    2.2075   -0.4808 H       1  UNL1        0.0624
     35 H          -7.0734    0.6018    0.6586 H       1  UNL1        0.0618
     36 H          -6.0995   -1.4199    1.7143 H       1  UNL1        0.0618
     37 H          -3.7223   -1.8404    1.6298 H       1  UNL1        0.0624
     38 H          -2.5427   -3.2339    0.7350 H       1  UNL1        0.0813
     39 H          -0.6242   -4.7374    1.1219 H       1  UNL1        0.1648
     40 H           1.6216   -3.6695    0.8739 H       1  UNL1        0.0813
     41 H           3.2183   -1.9792    0.4746 H       1  UNL1        0.0646
     42 H           1.4716    2.4509   -0.5086 H       1  UNL1        0.0836
     43 H           7.4241   -2.2874    0.4554 H       1  UNL1        0.1048
     44 H           7.7926    1.6841   -0.5259 H       1  UNL1        0.1048
@<TRIPOS>BOND
     1     1     2   ar
     2     2     3   ar
     3     3     4   ar
     4     4     5   ar
     5     5     6   ar
     6     6     7   ar
     7     7     8   ar
     8     8     9   ar
     9     9    10   ar
    10    10    11   ar
    11    11    12   ar
    12    12    13   ar
    13    13    14   ar
    14    14    15   ar
    15    15    16   ar
    16    16    17   ar
    17    17    18   ar
    18    18    19   ar
    19    19    20   ar
    20    20    21   ar
    21    21    22   ar
    22    22    23   ar
    23    23    24   ar
    24    20    25    1
    25    25    26   ar
    26    26    27   ar
    27    27    28   ar
    28    28    29   ar
    29    29    30   ar
    30     5     1   ar
    31    11     6   ar
    32    24    12   ar
    33    30    25   ar
    34    24     4   ar
    35    17    13   ar
    36    23    18   ar
    37     1    31    1
    38     2    32    1
    39     3    33    1
    40     7    34    1
    41     8    35    1
    42     9    36    1
    43    10    37    1
    44    14    38    1
    45    15    39    1
    46    16    40    1
    47    19    41    1
    48    22    42    1
    49    27    43    1
    50    29    44    1
