@<TRIPOS>MOLECULE
*****
 32 36 0 0 0
SMALL
GASTEIGER

@<TRIPOS>ATOM
      1 C          -5.5098   -0.0202    0.4589 C.ar    1  UNL1        0.0094
      2 N          -5.2988    1.2808    0.0233 N.ar    1  UNL1       -0.3659
      3 C          -3.9524    1.5063   -0.1943 C.ar    1  UNL1        0.0100
      4 C          -3.3537    0.3241    0.1156 C.ar    1  UNL1        0.0086
      5 C          -4.2845   -0.6408    0.5227 C.ar    1  UNL1        0.0001
      6 C          -4.0578   -1.9556    0.9152 C.ar    1  UNL1       -0.0506
      7 C          -2.6874   -2.3083    0.8783 C.ar    1  UNL1       -0.0371
      8 C          -1.7069   -1.3631    0.4721 C.ar    1  UNL1        0.0476
      9 N          -0.3368   -1.4462    0.3497 N.ar    1  UNL1       -0.3537
     10 C           0.2012   -0.2445   -0.0898 C.ar    1  UNL1        0.0542
     11 C          -0.8487    0.6480   -0.2590 C.ar    1  UNL1       -0.0275
     12 C          -1.9907   -0.0644    0.0909 C.ar    1  UNL1        0.0094
     13 C           1.6113   -0.0492   -0.3048 C.ar    1  UNL1        0.0381
     14 C           2.2322    1.1050   -0.7383 C.ar    1  UNL1       -0.0195
     15 C           3.6462    0.9718   -0.8495 C.ar    1  UNL1        0.0786
     16 N           4.4968    1.9549   -1.2537 N.ar    1  UNL1       -0.2544
     17 C           5.8004    1.6178   -1.2882 C.ar    1  UNL1        0.0283
     18 C           6.3159    0.3788   -0.9512 C.ar    1  UNL1       -0.0425
     19 C           5.4430   -0.6225   -0.5389 C.ar    1  UNL1       -0.0445
     20 C           4.0784   -0.3037   -0.4919 C.ar    1  UNL1        0.0382
     21 S           2.7568   -1.2968   -0.0334 S.2     1  UNL1       -0.0852
     22 H          -6.5113   -0.3649    0.6769 H       1  UNL1        0.0813
     23 H          -6.0290    1.9668   -0.1150 H       1  UNL1        0.1648
     24 H          -3.5844    2.4625   -0.5376 H       1  UNL1        0.0813
     25 H          -4.8299   -2.6493    1.2190 H       1  UNL1        0.0625
     26 H          -2.3884   -3.3136    1.1647 H       1  UNL1        0.0638
     27 H           0.2097   -2.2707    0.5519 H       1  UNL1        0.1659
     28 H          -0.7799    1.6740   -0.5919 H       1  UNL1        0.0645
     29 H           1.7084    2.0221   -0.9723 H       1  UNL1        0.0651
     30 H           6.4641    2.4158   -1.6134 H       1  UNL1        0.0830
     31 H           7.3834    0.1938   -1.0084 H       1  UNL1        0.0633
     32 H           5.8026   -1.6086   -0.2651 H       1  UNL1        0.0630
@<TRIPOS>BOND
     1     1     2   ar
     2     2     3   ar
     3     3     4   ar
     4     4     5   ar
     5     5     6   ar
     6     6     7   ar
     7     7     8   ar
     8     8     9   ar
     9     9    10   ar
    10    10    11   ar
    11    11    12   ar
    12    10    13    1
    13    13    14   ar
    14    14    15   ar
    15    15    16   ar
    16    16    17   ar
    17    17    18   ar
    18    18    19   ar
    19    19    20   ar
    20    20    21   ar
    21     5     1   ar
    22    12     8   ar
    23    21    13   ar
    24    12     4   ar
    25    20    15   ar
    26     1    22    1
    27     2    23    1
    28     3    24    1
    29     6    25    1
    30     7    26    1
    31     9    27    1
    32    11    28    1
    33    14    29    1
    34    17    30    1
    35    18    31    1
    36    19    32    1
