@<TRIPOS>MOLECULE
*****
 48 55 0 0 0
SMALL
GASTEIGER

@<TRIPOS>ATOM
      1 C          -4.7093    3.9169    0.2074 C.ar    1  UNL1        0.0094
      2 N          -3.4078    4.2435    0.4833 N.ar    1  UNL1       -0.3659
      3 C          -2.6077    3.1204    0.3976 C.ar    1  UNL1        0.0100
      4 C          -3.3897    2.0451    0.0345 C.ar    1  UNL1        0.0077
      5 C          -4.7277    2.5725   -0.0607 C.ar    1  UNL1        0.0000
      6 C          -5.8863    1.8822   -0.3594 C.ar    1  UNL1       -0.0520
      7 C          -5.5988    0.5268   -0.5534 C.ar    1  UNL1       -0.0527
      8 C          -4.2598   -0.0412   -0.4639 C.ar    1  UNL1       -0.0075
      9 C          -4.0155   -1.4180   -0.6510 C.ar    1  UNL1        0.0077
     10 C          -4.9500   -2.3923   -0.9254 C.ar    1  UNL1        0.0100
     11 N          -4.2852   -3.5920   -1.0249 N.ar    1  UNL1       -0.3659
     12 C          -2.9396   -3.3998   -0.8190 C.ar    1  UNL1        0.0100
     13 C          -2.7439   -2.0571   -0.5836 C.ar    1  UNL1        0.0077
     14 C          -1.5113   -1.4181   -0.3305 C.ar    1  UNL1       -0.0074
     15 C          -0.2696   -2.1174   -0.2879 C.ar    1  UNL1       -0.0426
     16 C           0.8950   -1.3816   -0.0544 C.ar    1  UNL1        0.0214
     17 C           2.2796   -1.6696    0.0613 C.ar    1  UNL1       -0.0080
     18 C           2.9218   -0.4675    0.2861 C.ar    1  UNL1        0.1368
     19 O           1.9989    0.5409    0.3331 O.2     1  UNL1       -0.4548
     20 C           0.7751   -0.0166    0.1203 C.ar    1  UNL1        0.1363
     21 C          -0.4350    0.6851    0.0835 C.ar    1  UNL1       -0.0104
     22 C          -1.6537    0.0015   -0.1334 C.ar    1  UNL1       -0.0054
     23 C          -3.0046    0.6708   -0.1765 C.ar    1  UNL1       -0.0003
     24 C           4.2929   -0.0603    0.5004 C.ar    1  UNL1        0.0255
     25 C           4.6623    0.9562    1.4189 C.ar    1  UNL1       -0.0505
     26 C           6.0120    1.3583    1.6775 C.ar    1  UNL1       -0.0605
     27 C           7.1351    0.7908    1.0423 C.ar    1  UNL1       -0.0535
     28 C           6.7725   -0.1974    0.1269 C.ar    1  UNL1       -0.0102
     29 C           7.7046   -0.8724   -0.6218 C.ar    1  UNL1       -0.0166
     30 S           6.9554   -1.9986   -1.6786 S.2     1  UNL1       -0.1039
     31 C           5.3793   -1.5740   -1.1336 C.ar    1  UNL1       -0.0159
     32 C           5.4134   -0.6163   -0.1454 C.ar    1  UNL1       -0.0002
     33 H          -5.4901    4.6647    0.2374 H       1  UNL1        0.0813
     34 H          -3.0792    5.1679    0.7306 H       1  UNL1        0.1648
     35 H          -1.5632    3.2433    0.6246 H       1  UNL1        0.0813
     36 H          -6.8798    2.3003   -0.4234 H       1  UNL1        0.0624
     37 H          -6.4370   -0.1286   -0.7825 H       1  UNL1        0.0624
     38 H          -6.0219   -2.3603   -1.0598 H       1  UNL1        0.0813
     39 H          -4.7220   -4.4834   -1.2212 H       1  UNL1        0.1648
     40 H          -2.2620   -4.2409   -0.8631 H       1  UNL1        0.0813
     41 H          -0.2164   -3.1895   -0.4370 H       1  UNL1        0.0631
     42 H           2.7471   -2.6416    0.0004 H       1  UNL1        0.0661
     43 H          -0.3843    1.7520    0.2078 H       1  UNL1        0.0661
     44 H           3.8719    1.4631    1.9756 H       1  UNL1        0.0625
     45 H           6.1761    2.1493    2.4101 H       1  UNL1        0.0618
     46 H           8.1478    1.1099    1.2503 H       1  UNL1        0.0624
     47 H           8.7809   -0.7683   -0.6204 H       1  UNL1        0.0699
     48 H           4.5297   -2.0587   -1.5911 H       1  UNL1        0.0700
@<TRIPOS>BOND
     1     1     2   ar
     2     2     3   ar
     3     3     4   ar
     4     4     5   ar
     5     5     6   ar
     6     6     7   ar
     7     7     8   ar
     8     8     9   ar
     9     9    10   ar
    10    10    11   ar
    11    11    12   ar
    12    12    13   ar
    13    13    14   ar
    14    14    15   ar
    15    15    16   ar
    16    16    17   ar
    17    17    18   ar
    18    18    19   ar
    19    19    20   ar
    20    20    21   ar
    21    21    22   ar
    22    22    23   ar
    23    18    24    1
    24    24    25   ar
    25    25    26   ar
    26    26    27   ar
    27    27    28   ar
    28    28    29   ar
    29    29    30   ar
    30    30    31   ar
    31    31    32   ar
    32     5     1   ar
    33    23     8   ar
    34    32    24   ar
    35    23     4   ar
    36    32    28   ar
    37    13     9   ar
    38    22    14   ar
    39    20    16   ar
    40     1    33    1
    41     2    34    1
    42     3    35    1
    43     6    36    1
    44     7    37    1
    45    10    38    1
    46    11    39    1
    47    12    40    1
    48    15    41    1
    49    17    42    1
    50    21    43    1
    51    25    44    1
    52    26    45    1
    53    27    46    1
    54    29    47    1
    55    31    48    1
