@<TRIPOS>MOLECULE
*****
 46 53 0 0 0
SMALL
GASTEIGER

@<TRIPOS>ATOM
      1 C          -6.0129    2.3420   -0.5656 C.ar    1  UNL1        0.0094
      2 N          -5.0341    3.3020   -0.6241 N.ar    1  UNL1       -0.3659
      3 C          -3.7870    2.7146   -0.5323 C.ar    1  UNL1        0.0100
      4 C          -3.9525    1.3478   -0.4724 C.ar    1  UNL1        0.0077
      5 C          -5.3746    1.1348   -0.4464 C.ar    1  UNL1        0.0000
      6 C          -6.0393   -0.0687   -0.2977 C.ar    1  UNL1       -0.0520
      7 C          -5.1164   -1.1098   -0.1306 C.ar    1  UNL1       -0.0527
      8 C          -3.6704   -0.9197   -0.1446 C.ar    1  UNL1       -0.0059
      9 C          -2.7451   -1.9648    0.0167 C.ar    1  UNL1        0.0282
     10 C          -3.0341   -3.3019    0.1382 C.ar    1  UNL1        0.1000
     11 O          -1.8807   -4.0242    0.1564 O.2     1  UNL1       -0.4698
     12 C          -0.8499   -3.1379    0.0554 C.ar    1  UNL1        0.1000
     13 C          -1.3202   -1.8463    0.0519 C.ar    1  UNL1        0.0288
     14 C          -0.5640   -0.6484   -0.0816 C.ar    1  UNL1        0.0047
     15 C          -1.4488    0.4251   -0.4161 C.ar    1  UNL1        0.0099
     16 C          -0.7695    1.5584   -0.8659 C.ar    1  UNL1        0.0366
     17 N           0.5768    1.7468   -0.9469 N.ar    1  UNL1       -0.2543
     18 C           1.3963    0.8005   -0.4976 C.ar    1  UNL1        0.0730
     19 C           2.7857    1.1036   -0.5640 C.ar    1  UNL1       -0.0243
     20 C           3.8712    0.3063   -0.0953 C.ar    1  UNL1        0.0319
     21 C           5.2784    0.6842   -0.2026 C.ar    1  UNL1        0.1637
     22 N           5.5419    1.9343   -0.5996 N.ar    1  UNL1       -0.2160
     23 C           6.8348    2.2327   -0.7005 C.ar    1  UNL1        0.1200
     24 N           7.8486    1.4107   -0.4504 N.ar    1  UNL1       -0.2241
     25 C           7.4694    0.1952   -0.0699 C.ar    1  UNL1        0.1200
     26 N           6.2148   -0.2275    0.0722 N.ar    1  UNL1       -0.2160
     27 C           3.3423   -0.8314    0.5163 C.ar    1  UNL1        0.0312
     28 C           4.0120   -1.8011    1.2206 C.ar    1  UNL1        0.1001
     29 O           3.1222   -2.6709    1.7756 O.2     1  UNL1       -0.4698
     30 C           1.8728   -2.2583    1.4187 C.ar    1  UNL1        0.1001
     31 C           1.9486   -1.1760    0.5777 C.ar    1  UNL1        0.0303
     32 C           0.8755   -0.4217    0.0134 C.ar    1  UNL1        0.0195
     33 C          -2.9458    0.3293   -0.3551 C.ar    1  UNL1        0.0011
     34 H          -7.0596    2.6138   -0.5913 H       1  UNL1        0.0813
     35 H          -5.2003    4.2984   -0.6853 H       1  UNL1        0.1648
     36 H          -2.9262    3.3634   -0.4947 H       1  UNL1        0.0813
     37 H          -7.1105   -0.2063   -0.2778 H       1  UNL1        0.0624
     38 H          -5.5183   -2.1106    0.0216 H       1  UNL1        0.0624
     39 H          -3.9410   -3.8883    0.1778 H       1  UNL1        0.1036
     40 H           0.1207   -3.6019   -0.0349 H       1  UNL1        0.1036
     41 H          -1.3068    2.4053   -1.2753 H       1  UNL1        0.0836
     42 H           3.0351    2.0667   -1.0202 H       1  UNL1        0.0646
     43 H           7.0833    3.2399   -1.0172 H       1  UNL1        0.1048
     44 H           8.2560   -0.5203    0.1451 H       1  UNL1        0.1048
     45 H           5.0480   -1.9960    1.4607 H       1  UNL1        0.1036
     46 H           1.0737   -2.8237    1.8750 H       1  UNL1        0.1036
@<TRIPOS>BOND
     1     1     2   ar
     2     2     3   ar
     3     3     4   ar
     4     4     5   ar
     5     5     6   ar
     6     6     7   ar
     7     7     8   ar
     8     8     9   ar
     9     9    10   ar
    10    10    11   ar
    11    11    12   ar
    12    12    13   ar
    13    13    14   ar
    14    14    15   ar
    15    15    16   ar
    16    16    17   ar
    17    17    18   ar
    18    18    19   ar
    19    19    20   ar
    20    20    21    1
    21    21    22   ar
    22    22    23   ar
    23    23    24   ar
    24    24    25   ar
    25    25    26   ar
    26    20    27   ar
    27    27    28   ar
    28    28    29   ar
    29    29    30   ar
    30    30    31   ar
    31    31    32   ar
    32    15    33   ar
    33     5     1   ar
    34    33     8   ar
    35    33     4   ar
    36    13     9   ar
    37    32    14   ar
    38    32    18   ar
    39    26    21   ar
    40    31    27   ar
    41     1    34    1
    42     2    35    1
    43     3    36    1
    44     6    37    1
    45     7    38    1
    46    10    39    1
    47    12    40    1
    48    16    41    1
    49    19    42    1
    50    23    43    1
    51    25    44    1
    52    28    45    1
    53    30    46    1
