@<TRIPOS>MOLECULE
*****
 45 52 0 0 0
SMALL
GASTEIGER

@<TRIPOS>ATOM
      1 C           6.4961    1.7304   -0.1602 C.ar    1  UNL1        0.0094
      2 N           5.6428    2.7716   -0.4421 N.ar    1  UNL1       -0.3659
      3 C           4.3353    2.3432   -0.3808 C.ar    1  UNL1        0.0101
      4 C           4.3358    1.0061   -0.0549 C.ar    1  UNL1        0.0092
      5 C           5.7132    0.6305    0.0821 C.ar    1  UNL1        0.0001
      6 C           6.2079   -0.6225    0.4039 C.ar    1  UNL1       -0.0520
      7 C           5.1530   -1.5311    0.5905 C.ar    1  UNL1       -0.0526
      8 C           3.7456   -1.1729    0.4568 C.ar    1  UNL1       -0.0045
      9 C           2.6762   -2.0686    0.6398 C.ar    1  UNL1        0.0283
     10 C           2.7537   -3.3989    0.9667 C.ar    1  UNL1        0.1000
     11 O           1.5002   -3.9267    1.0540 O.2     1  UNL1       -0.4698
     12 C           0.6151   -2.9230    0.7801 C.ar    1  UNL1        0.1001
     13 C           1.2873   -1.7547    0.5175 C.ar    1  UNL1        0.0316
     14 C           0.7804   -0.4893    0.1923 C.ar    1  UNL1        0.0356
     15 C          -0.5646   -0.1151    0.0567 C.ar    1  UNL1        0.0584
     16 N          -1.7510   -0.7990    0.1843 N.ar    1  UNL1       -0.3531
     17 C          -2.8356    0.0165   -0.0503 C.ar    1  UNL1        0.0563
     18 C          -2.3249    1.2658   -0.3380 C.ar    1  UNL1       -0.0266
     19 C          -0.9063    1.1948   -0.2739 C.ar    1  UNL1        0.0190
     20 C           0.1156    2.1211   -0.4659 C.ar    1  UNL1        0.0375
     21 N           1.4162    1.7591   -0.3348 N.ar    1  UNL1       -0.2536
     22 C           1.7915    0.5017   -0.0159 C.ar    1  UNL1        0.0820
     23 C           3.2086    0.1483    0.1170 C.ar    1  UNL1        0.0179
     24 C          -4.2018   -0.4448    0.0171 C.ar    1  UNL1        0.0629
     25 S          -4.5576   -2.0958    0.4077 S.2     1  UNL1       -0.0909
     26 C          -6.2490   -1.8629    0.2952 C.ar    1  UNL1        0.0038
     27 C          -6.5518   -0.5679   -0.0305 C.ar    1  UNL1        0.0968
     28 N          -7.8331   -0.1307   -0.1793 N.ar    1  UNL1       -0.2514
     29 C          -7.8558    1.1906   -0.5021 C.ar    1  UNL1        0.0464
     30 C          -6.7253    1.9995   -0.6620 C.ar    1  UNL1        0.0464
     31 N          -5.4372    1.5856   -0.5186 N.ar    1  UNL1       -0.2507
     32 C          -5.3758    0.2585   -0.1931 C.ar    1  UNL1        0.1053
     33 H           7.5674    1.8774   -0.1606 H       1  UNL1        0.0813
     34 H           5.9290    3.7163   -0.6630 H       1  UNL1        0.1648
     35 H           3.5317    3.0395   -0.5771 H       1  UNL1        0.0813
     36 H           7.2510   -0.8853    0.5024 H       1  UNL1        0.0624
     37 H           5.4153   -2.5559    0.8490 H       1  UNL1        0.0624
     38 H           3.5589   -4.0925    1.1623 H       1  UNL1        0.1036
     39 H          -0.4171   -3.2313    0.8212 H       1  UNL1        0.1036
     40 H          -1.8400   -1.7745    0.4191 H       1  UNL1        0.1659
     41 H          -2.9066    2.1485   -0.5724 H       1  UNL1        0.0645
     42 H          -0.0686    3.1575   -0.7247 H       1  UNL1        0.0836
     43 H          -6.9366   -2.6774    0.4710 H       1  UNL1        0.0715
     44 H          -8.8490    1.6099   -0.6371 H       1  UNL1        0.0845
     45 H          -6.8398    3.0484   -0.9214 H       1  UNL1        0.0845
@<TRIPOS>BOND
     1     1     2   ar
     2     2     3   ar
     3     3     4   ar
     4     4     5   ar
     5     5     6   ar
     6     6     7   ar
     7     7     8   ar
     8     8     9   ar
     9     9    10   ar
    10    10    11   ar
    11    11    12   ar
    12    12    13   ar
    13    13    14   ar
    14    14    15   ar
    15    15    16   ar
    16    16    17   ar
    17    17    18   ar
    18    18    19   ar
    19    19    20   ar
    20    20    21   ar
    21    21    22   ar
    22    22    23   ar
    23    17    24    1
    24    24    25   ar
    25    25    26   ar
    26    26    27   ar
    27    27    28   ar
    28    28    29   ar
    29    29    30   ar
    30    30    31   ar
    31    31    32   ar
    32     5     1   ar
    33    23     8   ar
    34    32    24   ar
    35    23     4   ar
    36    32    27   ar
    37    13     9   ar
    38    22    14   ar
    39    19    15   ar
    40     1    33    1
    41     2    34    1
    42     3    35    1
    43     6    36    1
    44     7    37    1
    45    10    38    1
    46    12    39    1
    47    16    40    1
    48    18    41    1
    49    20    42    1
    50    26    43    1
    51    29    44    1
    52    30    45    1
