@<TRIPOS>MOLECULE
*****
 43 50 0 0 0
SMALL
GASTEIGER

@<TRIPOS>ATOM
      1 C          -5.8414    2.1869   -0.7186 C.ar    1  UNL1        0.0094
      2 N          -4.8187    3.0995   -0.8348 N.ar    1  UNL1       -0.3659
      3 C          -3.5978    2.4782   -0.6531 C.ar    1  UNL1        0.0101
      4 C          -3.8380    1.1446   -0.4162 C.ar    1  UNL1        0.0091
      5 C          -5.2615    0.9723   -0.4601 C.ar    1  UNL1        0.0001
      6 C          -5.9606   -0.2136   -0.2754 C.ar    1  UNL1       -0.0520
      7 C          -5.0816   -1.2885   -0.0270 C.ar    1  UNL1       -0.0526
      8 C          -3.6356   -1.1537    0.0251 C.ar    1  UNL1       -0.0045
      9 C          -2.7310   -2.2172    0.2727 C.ar    1  UNL1        0.0283
     10 C          -3.0289   -3.5419    0.5048 C.ar    1  UNL1        0.1000
     11 O          -1.8796   -4.2701    0.7027 O.2     1  UNL1       -0.4698
     12 C          -0.8179   -3.4055    0.5976 C.ar    1  UNL1        0.1001
     13 C          -1.3262   -2.1735    0.3396 C.ar    1  UNL1        0.0307
     14 C          -0.7362   -0.9136    0.1352 C.ar    1  UNL1        0.0253
     15 C           0.6255   -0.6222    0.1536 C.ar    1  UNL1        0.0458
     16 S           2.1845   -1.3088    0.3656 S.2     1  UNL1       -0.0860
     17 C           2.9571    0.2261    0.1194 C.ar    1  UNL1        0.0240
     18 C           2.0166    1.2270   -0.1184 C.ar    1  UNL1       -0.0229
     19 C           0.6909    0.7183   -0.0941 C.ar    1  UNL1        0.0553
     20 N          -0.5935    1.2208   -0.2569 N.ar    1  UNL1       -0.3532
     21 C          -1.5087    0.2004   -0.1147 C.ar    1  UNL1        0.0571
     22 C          -2.9232    0.1090   -0.1733 C.ar    1  UNL1        0.0159
     23 C           4.4352    0.3796    0.1697 C.ar    1  UNL1        0.0169
     24 C           5.0495    1.6485   -0.0350 C.ar    1  UNL1       -0.0513
     25 C           6.4444    1.8912   -0.0058 C.ar    1  UNL1       -0.0590
     26 C           7.3841    0.8849    0.2329 C.ar    1  UNL1       -0.0335
     27 C           6.8632   -0.4103    0.4475 C.ar    1  UNL1        0.1005
     28 N           7.6100   -1.4982    0.6911 N.ar    1  UNL1       -0.1908
     29 S           6.5548   -2.7602    0.8709 S.2     1  UNL1        0.1165
     30 N           5.1128   -1.9871    0.6490 N.ar    1  UNL1       -0.1902
     31 C           5.3648   -0.6854    0.4188 C.ar    1  UNL1        0.1080
     32 H          -6.8728    2.4925   -0.8310 H       1  UNL1        0.0813
     33 H          -4.9435    4.0852   -1.0261 H       1  UNL1        0.1648
     34 H          -2.6976    3.0677   -0.7153 H       1  UNL1        0.0813
     35 H          -7.0351   -0.3221   -0.3126 H       1  UNL1        0.0624
     36 H          -5.5237   -2.2709    0.1333 H       1  UNL1        0.0624
     37 H          -3.9420   -4.1164    0.5636 H       1  UNL1        0.1036
     38 H           0.1628   -3.8382    0.7311 H       1  UNL1        0.1036
     39 H           2.2491    2.2671   -0.3008 H       1  UNL1        0.0650
     40 H          -0.7846    2.1931   -0.4492 H       1  UNL1        0.1659
     41 H           4.4240    2.5190   -0.2314 H       1  UNL1        0.0624
     42 H           6.8004    2.9076   -0.1771 H       1  UNL1        0.0618
     43 H           8.4499    1.0781    0.2537 H       1  UNL1        0.0640
@<TRIPOS>BOND
     1     1     2   ar
     2     2     3   ar
     3     3     4   ar
     4     4     5   ar
     5     5     6   ar
     6     6     7   ar
     7     7     8   ar
     8     8     9   ar
     9     9    10   ar
    10    10    11   ar
    11    11    12   ar
    12    12    13   ar
    13    13    14   ar
    14    14    15   ar
    15    15    16   ar
    16    16    17   ar
    17    17    18   ar
    18    18    19   ar
    19    19    20   ar
    20    20    21   ar
    21    21    22   ar
    22    17    23    1
    23    23    24   ar
    24    24    25   ar
    25    25    26   ar
    26    26    27   ar
    27    27    28   ar
    28    28    29   ar
    29    29    30   ar
    30    30    31   ar
    31     5     1   ar
    32    22     8   ar
    33    31    23   ar
    34    22     4   ar
    35    31    27   ar
    36    13     9   ar
    37    21    14   ar
    38    19    15   ar
    39     1    32    1
    40     2    33    1
    41     3    34    1
    42     6    35    1
    43     7    36    1
    44    10    37    1
    45    12    38    1
    46    18    39    1
    47    20    40    1
    48    24    41    1
    49    25    42    1
    50    26    43    1
