@<TRIPOS>MOLECULE
*****
 48 55 0 0 0
SMALL
GASTEIGER

@<TRIPOS>ATOM
      1 C          -6.6952    1.3068   -1.0167 C.ar    1  UNL1        0.0094
      2 N          -5.8175    2.1456   -1.6559 N.ar    1  UNL1       -0.3659
      3 C          -4.5176    1.7774   -1.3704 C.ar    1  UNL1        0.0100
      4 C          -4.5459    0.7265   -0.4788 C.ar    1  UNL1        0.0078
      5 C          -5.9373    0.4077   -0.3123 C.ar    1  UNL1        0.0000
      6 C          -6.4717   -0.6457    0.4028 C.ar    1  UNL1       -0.0519
      7 C          -5.4369   -1.4298    0.9315 C.ar    1  UNL1       -0.0513
      8 C          -4.0166   -1.1388    0.7722 C.ar    1  UNL1        0.0115
      9 C          -3.0643   -2.0309    1.3444 C.ar    1  UNL1        0.1082
     10 N          -3.3709   -3.1317    2.0604 N.ar    1  UNL1       -0.1901
     11 S          -1.9526   -3.8032    2.5569 S.2     1  UNL1        0.1165
     12 N          -0.8848   -2.7561    1.8739 N.ar    1  UNL1       -0.1901
     13 C          -1.5738   -1.8235    1.1906 C.ar    1  UNL1        0.1088
     14 C          -1.0125   -0.7034    0.4625 C.ar    1  UNL1        0.0192
     15 C          -1.9924    0.2556    0.0433 C.ar    1  UNL1       -0.0067
     16 C          -1.4815    1.4990   -0.3655 C.ar    1  UNL1       -0.0528
     17 C          -0.1161    1.7949   -0.4474 C.ar    1  UNL1       -0.0534
     18 C           0.8583    0.8434   -0.1830 C.ar    1  UNL1       -0.0160
     19 C           2.2349    1.2462   -0.3394 C.ar    1  UNL1       -0.0442
     20 C           3.3722    0.4219   -0.1608 C.ar    1  UNL1        0.0101
     21 C           4.7465    0.8880   -0.3079 C.ar    1  UNL1        0.0716
     22 C           5.7580    0.5567    0.5934 C.ar    1  UNL1       -0.0357
     23 C           7.0410    1.0638    0.3975 C.ar    1  UNL1       -0.0583
     24 C           7.2842    1.8962   -0.6861 C.ar    1  UNL1       -0.0436
     25 C           6.2268    2.1946   -1.5265 C.ar    1  UNL1        0.0283
     26 N           4.9728    1.7205   -1.3575 N.ar    1  UNL1       -0.2550
     27 C           2.9511   -0.8799    0.1133 C.ar    1  UNL1        0.0092
     28 C           3.7544   -1.9958    0.1767 C.ar    1  UNL1        0.0101
     29 N           2.9330   -3.0807    0.3535 N.ar    1  UNL1       -0.3659
     30 C           1.6187   -2.6760    0.3638 C.ar    1  UNL1        0.0100
     31 C           1.5833   -1.3029    0.2892 C.ar    1  UNL1        0.0084
     32 C           0.4204   -0.4600    0.2261 C.ar    1  UNL1        0.0011
     33 C          -3.4405   -0.0011    0.0894 C.ar    1  UNL1        0.0011
     34 H          -7.7634    1.4147   -1.1481 H       1  UNL1        0.0813
     35 H          -6.0817    2.8952   -2.2822 H       1  UNL1        0.1648
     36 H          -3.7196    2.3029   -1.8715 H       1  UNL1        0.0813
     37 H          -7.5203   -0.8776    0.5170 H       1  UNL1        0.0624
     38 H          -5.7259   -2.3201    1.4943 H       1  UNL1        0.0624
     39 H          -2.1484    2.3303   -0.5657 H       1  UNL1        0.0624
     40 H           0.1664    2.8033   -0.7485 H       1  UNL1        0.0624
     41 H           2.4353    2.2827   -0.6266 H       1  UNL1        0.0630
     42 H           5.5515   -0.0757    1.4510 H       1  UNL1        0.0639
     43 H           7.8394    0.8141    1.0902 H       1  UNL1        0.0619
     44 H           8.2702    2.3078   -0.8682 H       1  UNL1        0.0633
     45 H           6.3612    2.8454   -2.3857 H       1  UNL1        0.0830
     46 H           4.8209   -2.1364    0.0685 H       1  UNL1        0.0813
     47 H           3.2401   -4.0435    0.3996 H       1  UNL1        0.1648
     48 H           0.8464   -3.4283    0.3963 H       1  UNL1        0.0813
@<TRIPOS>BOND
     1     1     2   ar
     2     2     3   ar
     3     3     4   ar
     4     4     5   ar
     5     5     6   ar
     6     6     7   ar
     7     7     8   ar
     8     8     9   ar
     9     9    10   ar
    10    10    11   ar
    11    11    12   ar
    12    12    13   ar
    13    13    14   ar
    14    14    15   ar
    15    15    16   ar
    16    16    17   ar
    17    17    18   ar
    18    18    19   ar
    19    19    20   ar
    20    20    21    1
    21    21    22   ar
    22    22    23   ar
    23    23    24   ar
    24    24    25   ar
    25    25    26   ar
    26    20    27   ar
    27    27    28   ar
    28    28    29   ar
    29    29    30   ar
    30    30    31   ar
    31    31    32   ar
    32    15    33   ar
    33     5     1   ar
    34    33     8   ar
    35    33     4   ar
    36    13     9   ar
    37    32    14   ar
    38    32    18   ar
    39    26    21   ar
    40    31    27   ar
    41     1    34    1
    42     2    35    1
    43     3    36    1
    44     6    37    1
    45     7    38    1
    46    16    39    1
    47    17    40    1
    48    19    41    1
    49    22    42    1
    50    23    43    1
    51    24    44    1
    52    25    45    1
    53    28    46    1
    54    29    47    1
    55    30    48    1
