@<TRIPOS>MOLECULE
*****
 42 47 0 0 0
SMALL
GASTEIGER

@<TRIPOS>ATOM
      1 SI         -1.8073    0.7088   -0.2666 Si      1  UNL1        0.0000
      2 C          -0.5719   -0.7123   -0.1632 C.2     1  UNL1        0.0000
      3 C          -1.2122   -1.8970   -0.1284 C.2     1  UNL1        0.0000
      4 C          -2.6650   -1.8147   -0.1492 C.2     1  UNL1        0.0000
      5 C          -3.1966   -0.5712   -0.2230 C.2     1  UNL1        0.0000
      6 C          -4.6266   -0.2786   -0.2593 C.ar    1  UNL1        0.0000
      7 N          -5.4918   -1.3521   -0.2183 N.ar    1  UNL1        0.0000
      8 C          -6.8508   -1.1962   -0.2472 C.ar    1  UNL1        0.0000
      9 C          -7.5562   -0.0037   -0.3184 C.ar    1  UNL1        0.0000
     10 C          -6.7278    1.1313   -0.3631 C.ar    1  UNL1        0.0000
     11 N          -7.1666    2.3981   -0.4339 N.ar    1  UNL1        0.0000
     12 S          -5.8203    3.3632   -0.4631 S.2     1  UNL1        0.0000
     13 N          -4.6229    2.2220   -0.3854 N.ar    1  UNL1        0.0000
     14 C          -5.2195    1.0159   -0.3339 C.ar    1  UNL1        0.0000
     15 C           0.8591   -0.5086   -0.2094 C.ar    1  UNL1        0.0000
     16 C           1.6819   -0.8996   -1.2917 C.ar    1  UNL1        0.0000
     17 C           3.1036   -0.6917   -1.3371 C.ar    1  UNL1        0.0000
     18 C           3.8587   -0.0722   -0.3061 C.ar    1  UNL1        0.0000
     19 C           5.2919    0.1189   -0.3762 C.ar    1  UNL1        0.0000
     20 C           6.3071   -0.5423   -1.0421 C.ar    1  UNL1        0.0000
     21 C           7.5092    0.1445   -0.7438 C.ar    1  UNL1        0.0000
     22 C           7.1554    1.1893    0.0749 C.ar    1  UNL1        0.0000
     23 O           5.8169    1.1850    0.2981 O.2     1  UNL1        0.0000
     24 C           3.0340    0.2898    0.7699 C.ar    1  UNL1        0.0000
     25 C           3.3961    0.8565    1.9693 C.ar    1  UNL1        0.0000
     26 N           2.2546    1.0035    2.7246 N.ar    1  UNL1        0.0000
     27 C           1.1633    0.5223    2.0368 C.ar    1  UNL1        0.0000
     28 C           1.6115    0.0804    0.8146 C.ar    1  UNL1        0.0000
     29 H          -1.7871    1.5572    0.9551 H       1  UNL1        0.0000
     30 H          -1.7251    1.4148   -1.5725 H       1  UNL1        0.0000
     31 H          -0.7137   -2.8582   -0.0922 H       1  UNL1        0.0000
     32 H          -3.2573   -2.7227   -0.1107 H       1  UNL1        0.0000
     33 H          -7.3965   -2.1389   -0.2080 H       1  UNL1        0.0000
     34 H          -8.6349    0.0498   -0.3379 H       1  UNL1        0.0000
     35 H           1.2161   -1.3814   -2.1523 H       1  UNL1        0.0000
     36 H           3.6224   -1.0276   -2.2355 H       1  UNL1        0.0000
     37 H           6.1925   -1.4191   -1.6634 H       1  UNL1        0.0000
     38 H           8.5070   -0.0900   -1.0858 H       1  UNL1        0.0000
     39 H           7.7057    1.9850    0.5567 H       1  UNL1        0.0000
     40 H           4.3535    1.1663    2.3654 H       1  UNL1        0.0000
     41 H           2.2260    1.3922    3.6581 H       1  UNL1        0.0000
     42 H           0.1836    0.5342    2.4943 H       1  UNL1        0.0000
@<TRIPOS>BOND
     1     1     2    1
     2     2     3    2
     3     3     4    1
     4     4     5    2
     5     5     6    1
     6     6     7   ar
     7     7     8   ar
     8     8     9   ar
     9     9    10   ar
    10    10    11   ar
    11    11    12   ar
    12    12    13   ar
    13    13    14   ar
    14     2    15    1
    15    15    16   ar
    16    16    17   ar
    17    17    18   ar
    18    18    19    1
    19    19    20   ar
    20    20    21   ar
    21    21    22   ar
    22    22    23   ar
    23    18    24   ar
    24    24    25   ar
    25    25    26   ar
    26    26    27   ar
    27    27    28   ar
    28     5     1    1
    29    14     6   ar
    30    28    15   ar
    31    14    10   ar
    32    23    19   ar
    33    28    24   ar
    34     1    29    1
    35     1    30    1
    36     3    31    1
    37     4    32    1
    38     8    33    1
    39     9    34    1
    40    16    35    1
    41    17    36    1
    42    20    37    1
    43    21    38    1
    44    22    39    1
    45    25    40    1
    46    26    41    1
    47    27    42    1
