@<TRIPOS>MOLECULE
*****
 46 53 0 0 0
SMALL
GASTEIGER

@<TRIPOS>ATOM
      1 C          -6.7585   -1.1209    1.2810 C.ar    1  UNL1        0.0094
      2 N          -5.8909   -1.8158    2.0848 N.ar    1  UNL1       -0.3659
      3 C          -4.5849   -1.5465    1.7196 C.ar    1  UNL1        0.0100
      4 C          -4.6017   -0.6406    0.6823 C.ar    1  UNL1        0.0077
      5 C          -5.9887   -0.4022    0.4045 C.ar    1  UNL1        0.0000
      6 C          -6.5058    0.4049   -0.5878 C.ar    1  UNL1       -0.0520
      7 C          -5.4583    0.9715   -1.3350 C.ar    1  UNL1       -0.0534
      8 C          -4.0497    0.7595   -1.0961 C.ar    1  UNL1       -0.0166
      9 C          -3.1560    1.3955   -1.9473 C.ar    1  UNL1       -0.0534
     10 C          -1.7721    1.2486   -1.8078 C.ar    1  UNL1       -0.0527
     11 C          -1.1765    0.4676   -0.7982 C.ar    1  UNL1       -0.0060
     12 C          -2.0538   -0.1629    0.1154 C.ar    1  UNL1        0.0092
     13 C          -1.4215   -0.8464    1.1569 C.ar    1  UNL1        0.0366
     14 N          -0.0869   -0.9868    1.3554 N.ar    1  UNL1       -0.2543
     15 C           0.7503   -0.4369    0.4861 C.ar    1  UNL1        0.0728
     16 C           2.1265   -0.6486    0.7763 C.ar    1  UNL1       -0.0272
     17 C           3.2320   -0.1844    0.0229 C.ar    1  UNL1       -0.0016
     18 C           4.6174   -0.4428    0.3525 C.ar    1  UNL1        0.0291
     19 C           5.1615   -1.7274    0.4993 C.ar    1  UNL1        0.0375
     20 N           6.4527   -2.0711    0.8213 N.ar    1  UNL1       -0.2604
     21 C           7.3910   -1.1086    1.0527 C.ar    1  UNL1        0.0557
     22 C           6.9950    0.2391    0.9551 C.ar    1  UNL1        0.1185
     23 N           7.7722    1.3164    1.1516 N.ar    1  UNL1       -0.1892
     24 S           6.7999    2.6421    0.9264 S.2     1  UNL1        0.1165
     25 N           5.3589    1.9094    0.5598 N.ar    1  UNL1       -0.1901
     26 C           5.5700    0.5806    0.5979 C.ar    1  UNL1        0.1105
     27 C           2.7660    0.5049   -1.0918 C.ar    1  UNL1        0.0284
     28 C           3.5188    1.0531   -2.0983 C.ar    1  UNL1        0.1000
     29 O           2.6994    1.6022   -3.0355 O.2     1  UNL1       -0.4698
     30 C           1.4126    1.4020   -2.6230 C.ar    1  UNL1        0.1001
     31 C           1.3867    0.7392   -1.4194 C.ar    1  UNL1        0.0302
     32 C           0.2619    0.3022   -0.6398 C.ar    1  UNL1        0.0188
     33 C          -3.5021   -0.0569   -0.0434 C.ar    1  UNL1        0.0004
     34 H          -7.8289   -1.2147    1.4047 H       1  UNL1        0.0813
     35 H          -6.1647   -2.4493    2.8250 H       1  UNL1        0.1648
     36 H          -3.8036   -2.0613    2.2535 H       1  UNL1        0.0813
     37 H          -7.5519    0.5782   -0.7921 H       1  UNL1        0.0624
     38 H          -5.7520    1.6216   -2.1622 H       1  UNL1        0.0624
     39 H          -3.5198    2.0304   -2.7545 H       1  UNL1        0.0624
     40 H          -1.1712    1.8058   -2.5135 H       1  UNL1        0.0624
     41 H          -1.9855   -1.3190    1.9477 H       1  UNL1        0.0836
     42 H           2.3380   -1.2218    1.6834 H       1  UNL1        0.0645
     43 H           4.5222   -2.5983    0.3422 H       1  UNL1        0.0836
     44 H           8.3938   -1.4275    1.3037 H       1  UNL1        0.0852
     45 H           4.5768    1.1348   -2.3052 H       1  UNL1        0.1036
     46 H           0.6813    1.7811   -3.3181 H       1  UNL1        0.1036
@<TRIPOS>BOND
     1     1     2   ar
     2     2     3   ar
     3     3     4   ar
     4     4     5   ar
     5     5     6   ar
     6     6     7   ar
     7     7     8   ar
     8     8     9   ar
     9     9    10   ar
    10    10    11   ar
    11    11    12   ar
    12    12    13   ar
    13    13    14   ar
    14    14    15   ar
    15    15    16   ar
    16    16    17   ar
    17    17    18    1
    18    18    19   ar
    19    19    20   ar
    20    20    21   ar
    21    21    22   ar
    22    22    23   ar
    23    23    24   ar
    24    24    25   ar
    25    25    26   ar
    26    17    27   ar
    27    27    28   ar
    28    28    29   ar
    29    29    30   ar
    30    30    31   ar
    31    31    32   ar
    32    12    33   ar
    33     5     1   ar
    34    33     8   ar
    35    33     4   ar
    36    32    11   ar
    37    32    15   ar
    38    26    18   ar
    39    31    27   ar
    40    26    22   ar
    41     1    34    1
    42     2    35    1
    43     3    36    1
    44     6    37    1
    45     7    38    1
    46     9    39    1
    47    10    40    1
    48    13    41    1
    49    16    42    1
    50    19    43    1
    51    21    44    1
    52    28    45    1
    53    30    46    1
