@<TRIPOS>MOLECULE
*****
 40 46 0 0 0
SMALL
GASTEIGER

@<TRIPOS>ATOM
      1 C          -6.0041    0.9722   -0.1935 C.ar    1  UNL1        0.0094
      2 N          -5.3012    1.7734   -1.0618 N.ar    1  UNL1       -0.3659
      3 C          -3.9517    1.4962   -0.9721 C.ar    1  UNL1        0.0101
      4 C          -3.7888    0.4357   -0.1106 C.ar    1  UNL1        0.0092
      5 C          -5.0836    0.1752    0.4347 C.ar    1  UNL1        0.0001
      6 C          -5.3726   -0.6911    1.4680 C.ar    1  UNL1       -0.0506
      7 C          -4.1708   -1.2252    1.9809 C.ar    1  UNL1       -0.0351
      8 C          -2.8562   -0.9800    1.4903 C.ar    1  UNL1        0.0722
      9 N          -1.8739   -1.5267    2.2096 N.ar    1  UNL1       -0.2543
     10 C          -0.5870   -1.2987    1.8530 C.ar    1  UNL1        0.0371
     11 C          -0.1726   -0.6103    0.7111 C.ar    1  UNL1        0.0158
     12 C           1.2385   -0.4591    0.4520 C.ar    1  UNL1        0.0298
     13 S           2.6119   -0.9194    1.4094 S.2     1  UNL1       -0.0845
     14 C           3.7591   -0.3170    0.2749 C.ar    1  UNL1        0.0575
     15 C           3.1230    0.2158   -0.8345 C.ar    1  UNL1       -0.0356
     16 C           1.7257    0.1232   -0.7032 C.ar    1  UNL1       -0.0013
     17 C           0.7620    0.5179   -1.6819 C.ar    1  UNL1       -0.0020
     18 C           1.0735    0.9981   -2.9223 C.ar    1  UNL1       -0.0160
     19 S          -0.3746    1.1763   -3.8267 S.2     1  UNL1       -0.1038
     20 C          -1.3362    0.5866   -2.5207 C.ar    1  UNL1       -0.0160
     21 C          -0.6146    0.3672   -1.3650 C.ar    1  UNL1       -0.0018
     22 C          -1.1927   -0.1066   -0.1432 C.ar    1  UNL1        0.0027
     23 C          -2.5737   -0.1854    0.3265 C.ar    1  UNL1        0.0178
     24 C           5.2016   -0.4116    0.5351 C.ar    1  UNL1        0.1695
     25 N           5.6055   -0.9674    1.6790 N.ar    1  UNL1       -0.2155
     26 C           6.9254   -1.0093    1.8277 C.ar    1  UNL1        0.1201
     27 N           7.8259   -0.5576    0.9580 N.ar    1  UNL1       -0.2241
     28 C           7.2981   -0.0263   -0.1420 C.ar    1  UNL1        0.1201
     29 N           6.0013    0.0786   -0.4170 N.ar    1  UNL1       -0.2155
     30 H          -7.0743    1.0811   -0.0801 H       1  UNL1        0.0813
     31 H          -5.7051    2.5045   -1.6333 H       1  UNL1        0.1648
     32 H          -3.2536    2.1168   -1.5143 H       1  UNL1        0.0813
     33 H          -6.3455   -0.8874    1.8931 H       1  UNL1        0.0625
     34 H          -4.2516   -1.8740    2.8560 H       1  UNL1        0.0639
     35 H           0.1252   -1.7382    2.5476 H       1  UNL1        0.0836
     36 H           3.6651    0.6344   -1.6736 H       1  UNL1        0.0636
     37 H           2.0321    1.2137   -3.3722 H       1  UNL1        0.0700
     38 H          -2.3846    0.4200   -2.7131 H       1  UNL1        0.0700
     39 H           7.3037   -1.4527    2.7427 H       1  UNL1        0.1048
     40 H           7.9913    0.3570   -0.8833 H       1  UNL1        0.1048
@<TRIPOS>BOND
     1     1     2   ar
     2     2     3   ar
     3     3     4   ar
     4     4     5   ar
     5     5     6   ar
     6     6     7   ar
     7     7     8   ar
     8     8     9   ar
     9     9    10   ar
    10    10    11   ar
    11    11    12   ar
    12    12    13   ar
    13    13    14   ar
    14    14    15   ar
    15    15    16   ar
    16    16    17   ar
    17    17    18   ar
    18    18    19   ar
    19    19    20   ar
    20    20    21   ar
    21    21    22   ar
    22    22    23   ar
    23    14    24    1
    24    24    25   ar
    25    25    26   ar
    26    26    27   ar
    27    27    28   ar
    28    28    29   ar
    29     5     1   ar
    30    23     8   ar
    31    29    24   ar
    32    23     4   ar
    33    22    11   ar
    34    16    12   ar
    35    21    17   ar
    36     1    30    1
    37     2    31    1
    38     3    32    1
    39     6    33    1
    40     7    34    1
    41    10    35    1
    42    15    36    1
    43    18    37    1
    44    20    38    1
    45    26    39    1
    46    28    40    1
