@<TRIPOS>MOLECULE
*****
 43 49 0 0 0
SMALL
GASTEIGER

@<TRIPOS>ATOM
      1 C           6.0391   -0.0937   -1.0194 C.ar    1  UNL1        0.0094
      2 N           5.1941    0.2894   -2.0338 N.ar    1  UNL1       -0.3659
      3 C           3.8821    0.2185   -1.6080 C.ar    1  UNL1        0.0101
      4 C           3.8835   -0.1206   -0.2756 C.ar    1  UNL1        0.0092
      5 C           5.2464   -0.3923    0.0573 C.ar    1  UNL1        0.0001
      6 C           5.7037   -0.9225    1.2457 C.ar    1  UNL1       -0.0506
      7 C           4.6043   -1.2403    2.0727 C.ar    1  UNL1       -0.0351
      8 C           3.2292   -1.0077    1.7821 C.ar    1  UNL1        0.0722
      9 N           2.3681   -1.4697    2.6927 N.ar    1  UNL1       -0.2543
     10 C           1.0368   -1.3238    2.4819 C.ar    1  UNL1        0.0360
     11 C           0.4429   -0.6475    1.4252 C.ar    1  UNL1        0.0021
     12 C          -1.0015   -0.5495    1.3672 C.ar    1  UNL1       -0.0441
     13 C          -1.7355    0.1713    0.3967 C.ar    1  UNL1       -0.0058
     14 C          -3.1737    0.2762    0.3610 C.ar    1  UNL1       -0.0065
     15 C          -3.9729    0.8444    1.3901 C.ar    1  UNL1       -0.0533
     16 C          -5.4119    0.9413    1.3502 C.ar    1  UNL1       -0.0605
     17 C          -6.2126    0.4749    0.2825 C.ar    1  UNL1       -0.0510
     18 C          -5.4139   -0.0851   -0.7040 C.ar    1  UNL1        0.0204
     19 C          -5.8322   -0.6519   -1.8776 C.ar    1  UNL1        0.0994
     20 O          -4.7462   -1.1052   -2.5762 O.2     1  UNL1       -0.4698
     21 C          -3.6299   -0.8224   -1.8355 C.ar    1  UNL1        0.1000
     22 C          -3.9911   -0.1832   -0.6764 C.ar    1  UNL1        0.0276
     23 C          -0.8525    0.8333   -0.4519 C.ar    1  UNL1        0.0282
     24 C          -1.1715    1.7509   -1.4206 C.ar    1  UNL1        0.1000
     25 O          -0.0292    2.2756   -1.9471 O.2     1  UNL1       -0.4698
     26 C           1.0230    1.6865   -1.3058 C.ar    1  UNL1        0.1000
     27 C           0.5784    0.7350   -0.4222 C.ar    1  UNL1        0.0288
     28 C           1.3436   -0.0719    0.4743 C.ar    1  UNL1        0.0041
     29 C           2.7696   -0.3452    0.5952 C.ar    1  UNL1        0.0179
     30 H           7.1072   -0.1541   -1.1793 H       1  UNL1        0.0813
     31 H           5.4852    0.5244   -2.9743 H       1  UNL1        0.1648
     32 H           3.0936    0.3794   -2.3268 H       1  UNL1        0.0813
     33 H           6.7297   -1.1399    1.5025 H       1  UNL1        0.0625
     34 H           4.8257   -1.7297    3.0238 H       1  UNL1        0.0639
     35 H           0.4297   -1.7806    3.2618 H       1  UNL1        0.0836
     36 H          -1.5770   -1.0689    2.1383 H       1  UNL1        0.0630
     37 H          -3.4721    1.2484    2.2723 H       1  UNL1        0.0624
     38 H          -5.9109    1.4062    2.2021 H       1  UNL1        0.0618
     39 H          -7.2903    0.5501    0.2637 H       1  UNL1        0.0625
     40 H          -6.7906   -0.8165   -2.3489 H       1  UNL1        0.1035
     41 H          -2.6930   -1.1378   -2.2730 H       1  UNL1        0.1036
     42 H          -2.0934    2.1611   -1.8096 H       1  UNL1        0.1036
     43 H           1.9859    2.0929   -1.5733 H       1  UNL1        0.1036
@<TRIPOS>BOND
     1     1     2   ar
     2     2     3   ar
     3     3     4   ar
     4     4     5   ar
     5     5     6   ar
     6     6     7   ar
     7     7     8   ar
     8     8     9   ar
     9     9    10   ar
    10    10    11   ar
    11    11    12   ar
    12    12    13   ar
    13    13    14    1
    14    14    15   ar
    15    15    16   ar
    16    16    17   ar
    17    17    18   ar
    18    18    19   ar
    19    19    20   ar
    20    20    21   ar
    21    21    22   ar
    22    13    23   ar
    23    23    24   ar
    24    24    25   ar
    25    25    26   ar
    26    26    27   ar
    27    27    28   ar
    28    28    29   ar
    29     5     1   ar
    30    29     8   ar
    31    29     4   ar
    32    28    11   ar
    33    22    14   ar
    34    27    23   ar
    35    22    18   ar
    36     1    30    1
    37     2    31    1
    38     3    32    1
    39     6    33    1
    40     7    34    1
    41    10    35    1
    42    12    36    1
    43    15    37    1
    44    16    38    1
    45    17    39    1
    46    19    40    1
    47    21    41    1
    48    24    42    1
    49    26    43    1
