@<TRIPOS>MOLECULE
*****
 32 37 0 0 0
SMALL
GASTEIGER

@<TRIPOS>ATOM
      1 C          -5.6961    0.3078   -1.0424 C.ar    1  UNL1        0.0094
      2 N          -5.7615    0.1269    0.3339 N.ar    1  UNL1       -0.3659
      3 C          -4.4918   -0.0025    0.8684 C.ar    1  UNL1        0.0101
      4 C          -3.6626    0.1029   -0.2031 C.ar    1  UNL1        0.0112
      5 C          -4.3698    0.2954   -1.4024 C.ar    1  UNL1        0.0002
      6 C          -3.8643    0.4456   -2.6984 C.ar    1  UNL1       -0.0491
      7 C          -2.4445    0.3905   -2.7714 C.ar    1  UNL1       -0.0181
      8 C          -1.6914    0.1986   -1.5923 C.ar    1  UNL1        0.1376
      9 O          -0.3135    0.1200   -1.4747 O.2     1  UNL1       -0.4505
     10 C          -0.1526   -0.0655   -0.1414 C.ar    1  UNL1        0.1859
     11 C           1.0140   -0.2061    0.5118 C.ar    1  UNL1        0.1855
     12 O           2.2420   -0.1909   -0.0205 O.2     1  UNL1       -0.4474
     13 C           3.0476   -0.3763    1.0915 C.ar    1  UNL1        0.1738
     14 C           2.3072   -0.5001    2.2706 C.ar    1  UNL1        0.0018
     15 C           0.9656   -0.3830    1.8523 C.ar    1  UNL1        0.0624
     16 S          -0.7284   -0.3554    2.2243 S.2     1  UNL1       -0.0810
     17 C          -1.2934   -0.1140    0.6109 C.ar    1  UNL1        0.0700
     18 C          -2.2708    0.0585   -0.3466 C.ar    1  UNL1        0.0438
     19 C           4.4875   -0.4088    0.8434 C.ar    1  UNL1        0.1986
     20 N           4.9097   -0.2601   -0.4133 N.ar    1  UNL1       -0.2132
     21 C           6.2298   -0.3022   -0.5492 C.ar    1  UNL1        0.1201
     22 N           7.1128   -0.4737    0.4329 N.ar    1  UNL1       -0.2241
     23 C           6.5649   -0.6099    1.6385 C.ar    1  UNL1        0.1201
     24 N           5.2648   -0.5877    1.9162 N.ar    1  UNL1       -0.2132
     25 H          -6.6046    0.4261   -1.6172 H       1  UNL1        0.0813
     26 H          -6.6195    0.0945    0.8691 H       1  UNL1        0.1648
     27 H          -4.3342   -0.1513    1.9276 H       1  UNL1        0.0813
     28 H          -4.4793    0.5911   -3.5774 H       1  UNL1        0.0625
     29 H          -1.9378    0.4950   -3.7259 H       1  UNL1        0.0655
     30 H           2.7010   -0.6510    3.2650 H       1  UNL1        0.0668
     31 H           6.6248   -0.1861   -1.5528 H       1  UNL1        0.1048
     32 H           7.2441   -0.7523    2.4723 H       1  UNL1        0.1048
@<TRIPOS>BOND
     1     1     2   ar
     2     2     3   ar
     3     3     4   ar
     4     4     5   ar
     5     5     6   ar
     6     6     7   ar
     7     7     8   ar
     8     8     9   ar
     9     9    10   ar
    10    10    11   ar
    11    11    12   ar
    12    12    13   ar
    13    13    14   ar
    14    14    15   ar
    15    15    16   ar
    16    16    17   ar
    17    17    18   ar
    18    13    19    1
    19    19    20   ar
    20    20    21   ar
    21    21    22   ar
    22    22    23   ar
    23    23    24   ar
    24     5     1   ar
    25    18     8   ar
    26    24    19   ar
    27    18     4   ar
    28    17    10   ar
    29    15    11   ar
    30     1    25    1
    31     2    26    1
    32     3    27    1
    33     6    28    1
    34     7    29    1
    35    14    30    1
    36    21    31    1
    37    23    32    1
