@<TRIPOS>MOLECULE
*****
 33 38 0 0 0
SMALL
GASTEIGER

@<TRIPOS>ATOM
      1 C          -5.8879    0.1980   -0.9438 C.ar    1  UNL1        0.0094
      2 N          -5.3361    0.4042   -2.1993 N.ar    1  UNL1       -0.3659
      3 C          -3.9559    0.3817   -2.1283 C.ar    1  UNL1        0.0100
      4 C          -3.6803    0.1591   -0.8128 C.ar    1  UNL1        0.0076
      5 C          -4.8511    0.0410   -0.0546 C.ar    1  UNL1        0.0000
      6 C          -4.9868   -0.1859    1.3059 C.ar    1  UNL1       -0.0515
      7 C          -3.7343   -0.3033    1.9488 C.ar    1  UNL1       -0.0468
      8 C          -2.5017   -0.1927    1.2325 C.ar    1  UNL1        0.0206
      9 S          -0.8884   -0.3045    1.8261 S.2     1  UNL1       -0.0877
     10 C          -0.1773   -0.0486    0.2665 C.ar    1  UNL1        0.0271
     11 C          -1.1554    0.1213   -0.7026 C.ar    1  UNL1       -0.0381
     12 C          -2.4333    0.0352   -0.1305 C.ar    1  UNL1       -0.0011
     13 C           1.2650   -0.0303    0.0917 C.ar    1  UNL1        0.0271
     14 C           2.2438   -0.1998    1.0587 C.ar    1  UNL1       -0.0366
     15 C           3.5305   -0.1146    0.4916 C.ar    1  UNL1        0.0180
     16 C           3.5910    0.1126   -0.8670 C.ar    1  UNL1        0.0221
     17 C           4.8062    0.2232   -1.5827 C.ar    1  UNL1       -0.0453
     18 C           6.0419    0.1031   -0.9224 C.ar    1  UNL1       -0.0324
     19 C           5.9965   -0.1295    0.4680 C.ar    1  UNL1        0.1005
     20 N           7.0605   -0.2739    1.2815 N.ar    1  UNL1       -0.1908
     21 S           6.4552   -0.5278    2.8246 S.2     1  UNL1        0.1165
     22 N           4.8057   -0.4652    2.5261 N.ar    1  UNL1       -0.1901
     23 C           4.7609   -0.2461    1.2205 C.ar    1  UNL1        0.1081
     24 S           1.9790    0.2249   -1.4639 S.2     1  UNL1       -0.0877
     25 H          -6.9620    0.1850   -0.8173 H       1  UNL1        0.0813
     26 H          -5.8699    0.5502   -3.0463 H       1  UNL1        0.1648
     27 H          -3.3433    0.5243   -3.0072 H       1  UNL1        0.0813
     28 H          -5.9268   -0.2672    1.8340 H       1  UNL1        0.0624
     29 H          -3.7074   -0.4833    3.0219 H       1  UNL1        0.0629
     30 H          -0.9541    0.2955   -1.7513 H       1  UNL1        0.0635
     31 H           2.0429   -0.3743    2.1092 H       1  UNL1        0.0636
     32 H           4.7884    0.4032   -2.6561 H       1  UNL1        0.0629
     33 H           6.9844    0.1846   -1.4512 H       1  UNL1        0.0640
@<TRIPOS>BOND
     1     1     2   ar
     2     2     3   ar
     3     3     4   ar
     4     4     5   ar
     5     5     6   ar
     6     6     7   ar
     7     7     8   ar
     8     8     9   ar
     9     9    10   ar
    10    10    11   ar
    11    11    12   ar
    12    10    13    1
    13    13    14   ar
    14    14    15   ar
    15    15    16   ar
    16    16    17   ar
    17    17    18   ar
    18    18    19   ar
    19    19    20   ar
    20    20    21   ar
    21    21    22   ar
    22    22    23   ar
    23    16    24   ar
    24     5     1   ar
    25    12     8   ar
    26    24    13   ar
    27    12     4   ar
    28    23    15   ar
    29    23    19   ar
    30     1    25    1
    31     2    26    1
    32     3    27    1
    33     6    28    1
    34     7    29    1
    35    11    30    1
    36    14    31    1
    37    17    32    1
    38    18    33    1
