@<TRIPOS>MOLECULE
*****
 44 50 0 0 0
SMALL
GASTEIGER

@<TRIPOS>ATOM
      1 C          -6.5675    0.4744   -0.4811 C.ar    1  UNL1        0.0094
      2 N          -5.9616    1.7058   -0.6321 N.ar    1  UNL1       -0.3659
      3 C          -4.5902    1.5760   -0.5329 C.ar    1  UNL1        0.0100
      4 C          -4.3491    0.2402   -0.3920 C.ar    1  UNL1        0.0082
      5 C          -5.5700   -0.4528   -0.2920 C.ar    1  UNL1        0.0001
      6 C          -5.8050   -1.7843   -0.0076 C.ar    1  UNL1       -0.0515
      7 C          -4.6098   -2.4650    0.2765 C.ar    1  UNL1       -0.0468
      8 C          -3.3300   -1.8281    0.2020 C.ar    1  UNL1        0.0212
      9 S          -1.8147   -2.5260    0.6369 S.2     1  UNL1       -0.0876
     10 C          -0.9005   -1.1030    0.2156 C.ar    1  UNL1        0.0288
     11 C          -1.7805   -0.1591   -0.3217 C.ar    1  UNL1        0.0073
     12 C          -1.1519    0.9868   -0.9225 C.ar    1  UNL1        0.0088
     13 C          -1.6477    1.9521   -1.7499 C.ar    1  UNL1        0.0100
     14 N          -0.5867    2.7819   -2.0416 N.ar    1  UNL1       -0.3659
     15 C           0.5667    2.2930   -1.4631 C.ar    1  UNL1        0.0100
     16 C           0.2415    1.1365   -0.7853 C.ar    1  UNL1        0.0078
     17 C           1.1581    0.2796   -0.1473 C.ar    1  UNL1       -0.0071
     18 C           2.5562    0.4725   -0.0138 C.ar    1  UNL1       -0.0456
     19 C           3.3602   -0.4930    0.6097 C.ar    1  UNL1       -0.0158
     20 C           2.7380   -1.6567    1.0903 C.ar    1  UNL1       -0.0534
     21 C           1.3562   -1.8603    0.9600 C.ar    1  UNL1       -0.0524
     22 C           0.5325   -0.8961    0.3444 C.ar    1  UNL1       -0.0029
     23 C           4.8095   -0.2957    0.7518 C.ar    1  UNL1        0.0002
     24 C           5.4561   -0.4233    1.9879 C.ar    1  UNL1       -0.0512
     25 C           6.8324   -0.2252    2.0871 C.ar    1  UNL1       -0.0430
     26 C           7.5339    0.0984    0.9388 C.ar    1  UNL1        0.0276
     27 N           6.9605    0.2324   -0.2743 N.ar    1  UNL1       -0.2627
     28 C           5.6208    0.0309   -0.3367 C.ar    1  UNL1        0.0352
     29 C          -3.1335   -0.5119   -0.2066 C.ar    1  UNL1        0.0067
     30 H          -7.6458    0.3904   -0.4875 H       1  UNL1        0.0813
     31 H          -6.4535    2.5828   -0.7435 H       1  UNL1        0.1648
     32 H          -3.9643    2.4546   -0.5309 H       1  UNL1        0.0813
     33 H          -6.7783   -2.2495    0.0635 H       1  UNL1        0.0624
     34 H          -4.6616   -3.5081    0.5846 H       1  UNL1        0.0629
     35 H          -2.6109    2.1274   -2.2028 H       1  UNL1        0.0813
     36 H          -0.6348    3.5977   -2.6382 H       1  UNL1        0.1648
     37 H           1.5071    2.8006   -1.6281 H       1  UNL1        0.0813
     38 H           3.0066    1.3871   -0.3916 H       1  UNL1        0.0630
     39 H           3.3322   -2.4351    1.5668 H       1  UNL1        0.0624
     40 H           0.9400   -2.7846    1.3535 H       1  UNL1        0.0624
     41 H           4.8885   -0.6650    2.8836 H       1  UNL1        0.0625
     42 H           7.3423   -0.3176    3.0394 H       1  UNL1        0.0633
     43 H           8.6071    0.2638    0.9655 H       1  UNL1        0.0829
     44 H           5.2015    0.1357   -1.3348 H       1  UNL1        0.0836
@<TRIPOS>BOND
     1     1     2   ar
     2     2     3   ar
     3     3     4   ar
     4     4     5   ar
     5     5     6   ar
     6     6     7   ar
     7     7     8   ar
     8     8     9   ar
     9     9    10   ar
    10    10    11   ar
    11    11    12   ar
    12    12    13   ar
    13    13    14   ar
    14    14    15   ar
    15    15    16   ar
    16    16    17   ar
    17    17    18   ar
    18    18    19   ar
    19    19    20   ar
    20    20    21   ar
    21    21    22   ar
    22    19    23    1
    23    23    24   ar
    24    24    25   ar
    25    25    26   ar
    26    26    27   ar
    27    27    28   ar
    28    11    29   ar
    29     5     1   ar
    30    29     8   ar
    31    29     4   ar
    32    22    10   ar
    33    28    23   ar
    34    16    12   ar
    35    22    17   ar
    36     1    30    1
    37     2    31    1
    38     3    32    1
    39     6    33    1
    40     7    34    1
    41    13    35    1
    42    14    36    1
    43    15    37    1
    44    18    38    1
    45    20    39    1
    46    21    40    1
    47    24    41    1
    48    25    42    1
    49    26    43    1
    50    28    44    1
