@<TRIPOS>MOLECULE
*****
 40 46 0 0 0
SMALL
GASTEIGER

@<TRIPOS>ATOM
      1 C          -6.2588   -0.1668   -0.3679 C.ar    1  UNL1        0.0094
      2 N          -5.7025   -1.1556   -1.1542 N.ar    1  UNL1       -0.3659
      3 C          -4.3232   -1.1072   -1.0739 C.ar    1  UNL1        0.0100
      4 C          -4.0353   -0.1247   -0.1716 C.ar    1  UNL1        0.0082
      5 C          -5.2241    0.5141    0.2285 C.ar    1  UNL1        0.0001
      6 C          -5.3984    1.6365    1.0153 C.ar    1  UNL1       -0.0515
      7 C          -4.1664    2.2039    1.3794 C.ar    1  UNL1       -0.0468
      8 C          -2.9149    1.6162    1.0104 C.ar    1  UNL1        0.0212
      9 S          -1.3479    2.2757    1.3098 S.2     1  UNL1       -0.0860
     10 C          -0.5176    0.9315    0.5829 C.ar    1  UNL1        0.0471
     11 C          -1.4643   -0.0159    0.1822 C.ar    1  UNL1        0.0103
     12 C          -0.9163   -1.2707   -0.2546 C.ar    1  UNL1        0.0294
     13 C          -1.4765   -2.4881   -0.4937 C.ar    1  UNL1        0.1000
     14 O          -0.4825   -3.3586   -0.8592 O.2     1  UNL1       -0.4698
     15 C           0.7026   -2.6776   -0.7884 C.ar    1  UNL1        0.1000
     16 C           0.4812   -1.3847   -0.3746 C.ar    1  UNL1        0.0297
     17 C           1.4670   -0.4251   -0.0915 C.ar    1  UNL1        0.0129
     18 C           2.8724   -0.5191   -0.2154 C.ar    1  UNL1       -0.0397
     19 C           3.6880    0.5548    0.1713 C.ar    1  UNL1        0.0379
     20 C           3.0185    1.6740    0.6761 C.ar    1  UNL1        0.0390
     21 N           1.6698    1.8022    0.8155 N.ar    1  UNL1       -0.2531
     22 C           0.9015    0.7583    0.4273 C.ar    1  UNL1        0.0860
     23 C           5.1537    0.5129    0.0616 C.ar    1  UNL1        0.1645
     24 N           5.7091   -0.6011   -0.4296 N.ar    1  UNL1       -0.2159
     25 C           7.0380   -0.5761   -0.5035 C.ar    1  UNL1        0.1200
     26 N           7.8235    0.4330   -0.1402 N.ar    1  UNL1       -0.2241
     27 C           7.1627    1.4852    0.3324 C.ar    1  UNL1        0.1200
     28 N           5.8415    1.5888    0.4584 N.ar    1  UNL1       -0.2159
     29 C          -2.7904    0.4181    0.3105 C.ar    1  UNL1        0.0068
     30 H          -7.3312   -0.0270   -0.3414 H       1  UNL1        0.0813
     31 H          -6.2265   -1.7870   -1.7465 H       1  UNL1        0.1648
     32 H          -3.7310   -1.7471   -1.7082 H       1  UNL1        0.0813
     33 H          -6.3495    2.0808    1.2744 H       1  UNL1        0.0624
     34 H          -4.1642    3.1336    1.9467 H       1  UNL1        0.0629
     35 H          -2.4594   -2.9268   -0.4302 H       1  UNL1        0.1036
     36 H           1.5803   -3.2623   -1.0263 H       1  UNL1        0.1036
     37 H           3.3196   -1.4289   -0.6082 H       1  UNL1        0.0632
     38 H           3.5710    2.5534    1.0043 H       1  UNL1        0.0837
     39 H           7.5255   -1.4617   -0.8969 H       1  UNL1        0.1048
     40 H           7.7549    2.3390    0.6444 H       1  UNL1        0.1048
@<TRIPOS>BOND
     1     1     2   ar
     2     2     3   ar
     3     3     4   ar
     4     4     5   ar
     5     5     6   ar
     6     6     7   ar
     7     7     8   ar
     8     8     9   ar
     9     9    10   ar
    10    10    11   ar
    11    11    12   ar
    12    12    13   ar
    13    13    14   ar
    14    14    15   ar
    15    15    16   ar
    16    16    17   ar
    17    17    18   ar
    18    18    19   ar
    19    19    20   ar
    20    20    21   ar
    21    21    22   ar
    22    19    23    1
    23    23    24   ar
    24    24    25   ar
    25    25    26   ar
    26    26    27   ar
    27    27    28   ar
    28    11    29   ar
    29     5     1   ar
    30    29     8   ar
    31    29     4   ar
    32    22    10   ar
    33    28    23   ar
    34    16    12   ar
    35    22    17   ar
    36     1    30    1
    37     2    31    1
    38     3    32    1
    39     6    33    1
    40     7    34    1
    41    13    35    1
    42    15    36    1
    43    18    37    1
    44    20    38    1
    45    25    39    1
    46    27    40    1
