@<TRIPOS>MOLECULE
*****
 20 23 0 0 0
SMALL
GASTEIGER

@<TRIPOS>ATOM
      1 C          -1.4096   -0.5351    0.0284 C.ar    1  UNL1        0.0476
      2 C          -1.6816    0.8792   -0.0846 C.ar    1  UNL1        0.1793
      3 C          -0.2739    1.5450   -0.1232 C.ar    1  UNL1        0.1822
      4 N           0.3914    2.6666   -0.2044 N.ar    1  UNL1       -0.2321
      5 C           1.7440    2.2475   -0.1589 C.ar    1  UNL1        0.0539
      6 C           1.8576    0.8681   -0.0502 C.ar    1  UNL1        0.0667
      7 N           0.5642    0.4877   -0.0327 N.ar    1  UNL1       -0.2896
      8 C          -0.0107   -0.7697    0.0600 C.ar    1  UNL1        0.0595
      9 C           0.8346   -1.8042    0.1487 C.ar    1  UNL1       -0.0370
     10 C           2.2855   -1.4845    0.1375 C.ar    1  UNL1       -0.0578
     11 C           2.7745   -0.2160    0.0431 C.ar    1  UNL1       -0.0362
     12 O          -2.9683    1.2851   -0.1284 O.2     1  UNL1       -0.4592
     13 C          -3.5817    0.0517   -0.0380 C.ar    1  UNL1        0.0934
     14 C          -2.7061   -1.0445    0.0559 C.ar    1  UNL1       -0.0140
     15 H           2.5398    2.9801   -0.2086 H       1  UNL1        0.0851
     16 H           0.5113   -2.8348    0.2261 H       1  UNL1        0.0638
     17 H           2.9682   -2.3277    0.2098 H       1  UNL1        0.0619
     18 H           3.8427   -0.0231    0.0382 H       1  UNL1        0.0639
     19 H          -4.6631    0.1050   -0.0524 H       1  UNL1        0.1030
     20 H          -3.0187   -2.0765    0.1335 H       1  UNL1        0.0656
@<TRIPOS>BOND
     1     1     2   ar
     2     2     3   ar
     3     3     4   ar
     4     4     5   ar
     5     5     6   ar
     6     6     7   ar
     7     7     8   ar
     8     8     9   ar
     9     9    10   ar
    10    10    11   ar
    11     2    12   ar
    12    12    13   ar
    13    13    14   ar
    14    14     1   ar
    15     8     1   ar
    16     7     3   ar
    17    11     6   ar
    18     5    15    1
    19     9    16    1
    20    10    17    1
    21    11    18    1
    22    13    19    1
    23    14    20    1
