@<TRIPOS>MOLECULE
*****
 28 31 0 0 0
SMALL
GASTEIGER

@<TRIPOS>ATOM
      1 C          -2.4898    0.3164    0.7067 C.ar    1  UNL1        0.0287
      2 C          -3.5641   -0.2705    0.0723 C.ar    1  UNL1        0.0487
      3 N          -4.6626    0.1720    0.7774 N.ar    1  UNL1       -0.3606
      4 C          -4.2631    1.0016    1.8072 C.ar    1  UNL1        0.0028
      5 C          -2.8860    1.1084    1.7822 C.ar    1  UNL1       -0.0345
      6 C          -3.4253   -1.1131   -1.0382 C.ar    1  UNL1       -0.0342
      7 C          -2.1275   -1.3674   -1.5227 C.ar    1  UNL1       -0.0152
      8 C          -1.0681   -0.7574   -0.8564 C.ar    1  UNL1        0.1564
      9 C          -1.1756    0.0727    0.2341 C.ar    1  UNL1        0.1190
     10 N           0.0324    0.5176    0.6682 N.ar    1  UNL1       -0.2083
     11 C           0.8692   -0.0601   -0.1814 C.ar    1  UNL1        0.2284
     12 C           2.3272    0.0326   -0.2342 C.ar    1  UNL1        0.0369
     13 C           3.0052    0.8208    0.7087 C.ar    1  UNL1       -0.0495
     14 C           4.3981    0.9294    0.6841 C.ar    1  UNL1       -0.0610
     15 C           5.1321    0.2499   -0.2854 C.ar    1  UNL1       -0.0617
     16 C           4.4755   -0.5370   -1.2292 C.ar    1  UNL1       -0.0610
     17 C           3.0819   -0.6451   -1.2039 C.ar    1  UNL1       -0.0495
     18 O           0.2670   -0.8520   -1.1381 O.2     1  UNL1       -0.4353
     19 H          -5.6207   -0.0753    0.5701 H       1  UNL1        0.1653
     20 H          -4.9980    1.4428    2.4673 H       1  UNL1        0.0807
     21 H          -2.2658    1.6843    2.4562 H       1  UNL1        0.0639
     22 H          -4.2894   -1.5622   -1.5187 H       1  UNL1        0.0639
     23 H          -1.9573   -2.0106   -2.3780 H       1  UNL1        0.0656
     24 H           2.4439    1.3576    1.4723 H       1  UNL1        0.0625
     25 H           4.9066    1.5443    1.4222 H       1  UNL1        0.0618
     26 H           6.2157    0.3338   -0.3052 H       1  UNL1        0.0618
     27 H           5.0469   -1.0680   -1.9865 H       1  UNL1        0.0618
     28 H           2.5915   -1.2655   -1.9511 H       1  UNL1        0.0625
@<TRIPOS>BOND
     1     1     2   ar
     2     2     3   ar
     3     3     4   ar
     4     4     5   ar
     5     2     6   ar
     6     6     7   ar
     7     7     8   ar
     8     8     9   ar
     9     9    10   ar
    10    10    11   ar
    11    11    12    1
    12    12    13   ar
    13    13    14   ar
    14    14    15   ar
    15    15    16   ar
    16    16    17   ar
    17    11    18   ar
    18     9     1   ar
    19     5     1   ar
    20    18     8   ar
    21    17    12   ar
    22     3    19    1
    23     4    20    1
    24     5    21    1
    25     6    22    1
    26     7    23    1
    27    13    24    1
    28    14    25    1
    29    15    26    1
    30    16    27    1
    31    17    28    1
