@<TRIPOS>MOLECULE
*****
 30 33 0 0 0
SMALL
GASTEIGER

@<TRIPOS>ATOM
      1 C          -2.4288    0.5097   -0.6263 C.ar    1  UNL1       -0.0173
      2 C          -3.6357    0.9223   -1.2150 C.ar    1  UNL1       -0.0540
      3 C          -4.8573    0.6806   -0.5847 C.ar    1  UNL1       -0.0612
      4 C          -4.8881    0.0238    0.6415 C.ar    1  UNL1       -0.0612
      5 C          -3.6974   -0.3922    1.2392 C.ar    1  UNL1       -0.0540
      6 C          -2.4601   -0.1563    0.6172 C.ar    1  UNL1       -0.0173
      7 C          -1.2531   -0.5687    1.2057 C.ar    1  UNL1       -0.0463
      8 C          -0.0156   -0.3325    0.5831 C.ar    1  UNL1       -0.0167
      9 C           0.0156    0.3325   -0.6585 C.ar    1  UNL1       -0.0167
     10 C           1.2531    0.5687   -1.2811 C.ar    1  UNL1       -0.0463
     11 C           2.4601    0.1563   -0.6926 C.ar    1  UNL1       -0.0173
     12 C           3.6974    0.3922   -1.3146 C.ar    1  UNL1       -0.0540
     13 C           4.8881   -0.0238   -0.7169 C.ar    1  UNL1       -0.0612
     14 C           4.8573   -0.6806    0.5093 C.ar    1  UNL1       -0.0612
     15 C           3.6357   -0.9223    1.1397 C.ar    1  UNL1       -0.0540
     16 C           2.4288   -0.5097    0.5509 C.ar    1  UNL1       -0.0173
     17 C           1.1914   -0.7454    1.1725 C.ar    1  UNL1       -0.0463
     18 C          -1.1914    0.7454   -1.2479 C.ar    1  UNL1       -0.0463
     19 H          -3.6322    1.4371   -2.1732 H       1  UNL1        0.0624
     20 H          -5.7832    1.0055   -1.0519 H       1  UNL1        0.0618
     21 H          -5.8381   -0.1655    1.1343 H       1  UNL1        0.0618
     22 H          -3.7421   -0.9041    2.1979 H       1  UNL1        0.0624
     23 H          -1.2776   -1.0825    2.1649 H       1  UNL1        0.0630
     24 H           1.2776    1.0825   -2.2403 H       1  UNL1        0.0630
     25 H           3.7421    0.9041   -2.2733 H       1  UNL1        0.0624
     26 H           5.8381    0.1655   -1.2097 H       1  UNL1        0.0618
     27 H           5.7832   -1.0055    0.9765 H       1  UNL1        0.0618
     28 H           3.6322   -1.4371    2.0978 H       1  UNL1        0.0624
     29 H           1.1677   -1.2593    2.1318 H       1  UNL1        0.0630
     30 H          -1.1677    1.2593   -2.2071 H       1  UNL1        0.0630
@<TRIPOS>BOND
     1     1     2   ar
     2     2     3   ar
     3     3     4   ar
     4     4     5   ar
     5     5     6   ar
     6     6     7   ar
     7     7     8   ar
     8     8     9   ar
     9     9    10   ar
    10    10    11   ar
    11    11    12   ar
    12    12    13   ar
    13    13    14   ar
    14    14    15   ar
    15    11    16   ar
    16    16    17   ar
    17     9    18   ar
    18     6     1   ar
    19    18     1   ar
    20    17     8   ar
    21    16    15   ar
    22     2    19    1
    23     3    20    1
    24     4    21    1
    25     5    22    1
    26     7    23    1
    27    10    24    1
    28    12    25    1
    29    13    26    1
    30    14    27    1
    31    15    28    1
    32    17    29    1
    33    18    30    1
