@<TRIPOS>MOLECULE
*****
 43 49 0 0 0
SMALL
GASTEIGER

@<TRIPOS>ATOM
      1 SI         -1.8173    1.2089   -0.4911 Si      1  UNL1        0.0000
      2 C          -3.2800    0.4353    0.4166 C.2     1  UNL1        0.0000
      3 C          -2.8866   -0.6003    1.1862 C.2     1  UNL1        0.0000
      4 C          -1.4604   -0.8964    1.1425 C.2     1  UNL1        0.0000
      5 C          -0.7341   -0.0885    0.3439 C.2     1  UNL1        0.0000
      6 C           0.6513   -0.1997    0.1298 C.ar    1  UNL1        0.0000
      7 S           1.7890    1.0233    0.5572 S.2     1  UNL1        0.0000
      8 C           3.1482    0.1121    0.0053 C.ar    1  UNL1        0.0000
      9 C           4.4916    0.6591    0.1159 C.ar    1  UNL1        0.0000
     10 C           4.8624    1.9124   -0.4235 C.ar    1  UNL1        0.0000
     11 C           6.1677    2.4489   -0.3225 C.ar    1  UNL1        0.0000
     12 C           7.2204    1.7835    0.3264 C.ar    1  UNL1        0.0000
     13 C           6.9123    0.5223    0.8905 C.ar    1  UNL1        0.0000
     14 N           7.7750   -0.2662    1.5493 N.ar    1  UNL1        0.0000
     15 S           6.9214   -1.6103    2.0152 S.2     1  UNL1        0.0000
     16 N           5.4259   -1.2621    1.3914 N.ar    1  UNL1        0.0000
     17 C           5.5199   -0.0624    0.7887 C.ar    1  UNL1        0.0000
     18 C           2.6780   -1.0648   -0.4791 C.ar    1  UNL1        0.0000
     19 C           3.2928   -2.1969   -1.0778 C.ar    1  UNL1        0.0000
     20 C           2.3721   -3.1862   -1.4381 C.ar    1  UNL1        0.0000
     21 S           0.6846   -2.8399   -1.0987 S.2     1  UNL1        0.0000
     22 C           1.2975   -1.2720   -0.4292 C.ar    1  UNL1        0.0000
     23 C          -4.6042    0.8901    0.2896 C.ar    1  UNL1        0.0000
     24 S          -5.1238    2.5194    0.6112 S.2     1  UNL1        0.0000
     25 C          -6.7902    2.1827    0.2497 C.ar    1  UNL1        0.0000
     26 C          -6.8757    0.8832   -0.0966 C.ar    1  UNL1        0.0000
     27 C          -7.8202   -0.0878   -0.5090 C.ar    1  UNL1        0.0000
     28 C          -7.1135   -1.2935   -0.7061 C.ar    1  UNL1        0.0000
     29 N          -5.7542   -1.1422   -0.4386 N.ar    1  UNL1        0.0000
     30 C          -5.6943    0.1753   -0.0780 C.ar    1  UNL1        0.0000
     31 H          -1.8921    1.0152   -1.9633 H       1  UNL1        0.0000
     32 H          -1.5081    2.5900   -0.0361 H       1  UNL1        0.0000
     33 H          -3.5482   -1.1871    1.8128 H       1  UNL1        0.0000
     34 H          -1.0506   -1.7148    1.7232 H       1  UNL1        0.0000
     35 H           4.1122    2.5019   -0.9532 H       1  UNL1        0.0000
     36 H           6.3650    3.4240   -0.7697 H       1  UNL1        0.0000
     37 H           8.2155    2.2065    0.3969 H       1  UNL1        0.0000
     38 H           4.3575   -2.3107   -1.2421 H       1  UNL1        0.0000
     39 H           2.5958   -4.1372   -1.9021 H       1  UNL1        0.0000
     40 H          -7.5509    2.9467    0.3159 H       1  UNL1        0.0000
     41 H          -8.8838    0.0445   -0.6562 H       1  UNL1        0.0000
     42 H          -7.4789   -2.2617   -1.0237 H       1  UNL1        0.0000
     43 H          -4.9892   -1.8040   -0.4919 H       1  UNL1        0.0000
@<TRIPOS>BOND
     1     1     2    1
     2     2     3    2
     3     3     4    1
     4     4     5    2
     5     5     6    1
     6     6     7   ar
     7     7     8   ar
     8     8     9    1
     9     9    10   ar
    10    10    11   ar
    11    11    12   ar
    12    12    13   ar
    13    13    14   ar
    14    14    15   ar
    15    15    16   ar
    16    16    17   ar
    17     8    18   ar
    18    18    19   ar
    19    19    20   ar
    20    20    21   ar
    21    21    22   ar
    22     2    23    1
    23    23    24   ar
    24    24    25   ar
    25    25    26   ar
    26    26    27   ar
    27    27    28   ar
    28    28    29   ar
    29    29    30   ar
    30     5     1    1
    31    22     6   ar
    32    30    23   ar
    33    17     9   ar
    34    22    18   ar
    35    30    26   ar
    36    17    13   ar
    37     1    31    1
    38     1    32    1
    39     3    33    1
    40     4    34    1
    41    10    35    1
    42    11    36    1
    43    12    37    1
    44    19    38    1
    45    20    39    1
    46    25    40    1
    47    27    41    1
    48    28    42    1
    49    29    43    1
