@<TRIPOS>MOLECULE
*****
 24 26 0 0 0
SMALL
GASTEIGER

@<TRIPOS>ATOM
      1 C           1.1685   -0.5019   -0.5271 C.ar    1  UNL1       -0.0173
      2 C           2.3387   -0.9929   -1.1294 C.ar    1  UNL1       -0.0540
      3 C           3.5948   -0.6928   -0.6000 C.ar    1  UNL1       -0.0612
      4 C           3.6973    0.1015    0.5377 C.ar    1  UNL1       -0.0612
      5 C           2.5438    0.5970    1.1477 C.ar    1  UNL1       -0.0540
      6 C           1.2724    0.3039    0.6271 C.ar    1  UNL1       -0.0173
      7 C           0.1026    0.7954    1.2300 C.ar    1  UNL1       -0.0463
      8 C          -1.1685    0.5019    0.7087 C.ar    1  UNL1       -0.0173
      9 C          -2.3387    0.9929    1.3111 C.ar    1  UNL1       -0.0540
     10 C          -3.5948    0.6928    0.7817 C.ar    1  UNL1       -0.0612
     11 C          -3.6973   -0.1015   -0.3560 C.ar    1  UNL1       -0.0612
     12 C          -2.5438   -0.5970   -0.9661 C.ar    1  UNL1       -0.0540
     13 C          -1.2724   -0.3039   -0.4454 C.ar    1  UNL1       -0.0173
     14 C          -0.1026   -0.7954   -1.0484 C.ar    1  UNL1       -0.0463
     15 H           2.2791   -1.6155   -2.0194 H       1  UNL1        0.0624
     16 H           4.4915   -1.0798   -1.0767 H       1  UNL1        0.0618
     17 H           4.6742    0.3365    0.9517 H       1  UNL1        0.0618
     18 H           2.6444    1.2162    2.0363 H       1  UNL1        0.0624
     19 H           0.1828    1.4168    2.1200 H       1  UNL1        0.0630
     20 H          -2.2791    1.6155    2.2010 H       1  UNL1        0.0624
     21 H          -4.4915    1.0798    1.2584 H       1  UNL1        0.0618
     22 H          -4.6742   -0.3365   -0.7701 H       1  UNL1        0.0618
     23 H          -2.6444   -1.2162   -1.8547 H       1  UNL1        0.0624
     24 H          -0.1828   -1.4167   -1.9383 H       1  UNL1        0.0630
@<TRIPOS>BOND
     1     1     2   ar
     2     2     3   ar
     3     3     4   ar
     4     4     5   ar
     5     5     6   ar
     6     6     7   ar
     7     7     8   ar
     8     8     9   ar
     9     9    10   ar
    10    10    11   ar
    11    11    12   ar
    12    12    13   ar
    13    13    14   ar
    14     6     1   ar
    15    14     1   ar
    16    13     8   ar
    17     2    15    1
    18     3    16    1
    19     4    17    1
    20     5    18    1
    21     7    19    1
    22     9    20    1
    23    10    21    1
    24    11    22    1
    25    12    23    1
    26    14    24    1
