@<TRIPOS>MOLECULE
*****
 40 44 0 0 0
SMALL
GASTEIGER

@<TRIPOS>ATOM
      1 C          -3.1780    0.6155    0.4975 C.ar    1  UNL1        0.0000
      2 C          -3.4859    1.7516    1.2036 C.ar    1  UNL1        0.0000
      3 C          -4.8315    2.0851    1.3834 C.ar    1  UNL1        0.0000
      4 C          -5.8428    1.3229    0.8830 C.ar    1  UNL1        0.0000
      5 C          -5.5553    0.1862    0.1762 C.ar    1  UNL1        0.0000
      6 C          -4.2138   -0.1526   -0.0071 C.ar    1  UNL1        0.0000
      7 C          -3.9086   -1.2895   -0.7140 C.ar    1  UNL1        0.0000
      8 C          -2.5890   -1.6583   -0.9168 C.ar    1  UNL1        0.0000
      9 C          -1.5652   -0.8840   -0.4086 C.ar    1  UNL1        0.0000
     10 C          -1.8507    0.2868    0.3201 C.ar    1  UNL1        0.0000
     11 C          -0.7798    1.1022    0.8548 C.ar    1  UNL1        0.0000
     12 C           0.5273    0.8159    0.7055 C.ar    1  UNL1        0.0000
     13 B           0.9248   -0.4391   -0.0677 B       1  UNL1        0.0000
     14 C           2.3749   -0.8540   -0.4030 C.ar    1  UNL1        0.0000
     15 C           3.5114   -0.0944    0.0273 C.ar    1  UNL1        0.0000
     16 C           3.6678    0.6894    1.1113 C.ar    1  UNL1        0.0000
     17 C           4.8206    1.4642    1.3266 C.ar    1  UNL1        0.0000
     18 C           5.8511    1.4436    0.4173 C.ar    1  UNL1        0.0000
     19 C           5.7096    0.6475   -0.6921 C.ar    1  UNL1        0.0000
     20 C           4.5904   -0.0968   -0.8924 C.ar    1  UNL1        0.0000
     21 C           2.4944   -1.9454   -1.1801 C.ar    1  UNL1        0.0000
     22 C           1.3734   -2.7052   -1.6818 C.ar    1  UNL1        0.0000
     23 C           0.1095   -2.4055   -1.4295 C.ar    1  UNL1        0.0000
     24 N          -0.2338   -1.2904   -0.6330 N.ar    1  UNL1        0.0000
     25 H          -2.8016    2.4200    1.6379 H       1  UNL1        0.0000
     26 H          -5.1153    2.9845    1.9415 H       1  UNL1        0.0000
     27 H          -6.8877    1.5735    1.0174 H       1  UNL1        0.0000
     28 H          -6.3156   -0.4519   -0.2409 H       1  UNL1        0.0000
     29 H          -4.7288   -1.8883   -1.1076 H       1  UNL1        0.0000
     30 H          -2.4536   -2.5593   -1.4783 H       1  UNL1        0.0000
     31 H          -0.9934    1.9794    1.3986 H       1  UNL1        0.0000
     32 H           1.2707    1.4798    1.0869 H       1  UNL1        0.0000
     33 H           2.9224    0.6830    1.8815 H       1  UNL1        0.0000
     34 H           4.9022    2.0809    2.2097 H       1  UNL1        0.0000
     35 H           6.7453    2.0353    0.5702 H       1  UNL1        0.0000
     36 H           6.5285    0.6191   -1.4306 H       1  UNL1        0.0000
     37 H           4.5592   -0.6884   -1.7996 H       1  UNL1        0.0000
     38 H           3.4993   -2.2762   -1.4316 H       1  UNL1        0.0000
     39 H           1.5793   -3.5657   -2.2970 H       1  UNL1        0.0000
     40 H          -0.6318   -3.0213   -1.8387 H       1  UNL1        0.0000
@<TRIPOS>BOND
     1     1     2   ar
     2     2     3   ar
     3     3     4   ar
     4     4     5   ar
     5     5     6   ar
     6     6     7   ar
     7     7     8   ar
     8     8     9   ar
     9     9    10   ar
    10    10    11   ar
    11    11    12   ar
    12    12    13   ar
    13    13    14   ar
    14    14    15    1
    15    15    16   ar
    16    16    17   ar
    17    17    18   ar
    18    18    19   ar
    19    19    20   ar
    20    14    21   ar
    21    21    22   ar
    22    22    23   ar
    23    23    24   ar
    24     6     1   ar
    25    10     1   ar
    26    24     9   ar
    27    24    13   ar
    28    20    15   ar
    29     2    25    1
    30     3    26    1
    31     4    27    1
    32     5    28    1
    33     7    29    1
    34     8    30    1
    35    11    31    1
    36    12    32    1
    37    16    33    1
    38    17    34    1
    39    18    35    1
    40    19    36    1
    41    20    37    1
    42    21    38    1
    43    22    39    1
    44    23    40    1
