@<TRIPOS>MOLECULE
*****
 43 47 0 0 0
SMALL
GASTEIGER

@<TRIPOS>ATOM
      1 C          -3.5795    0.3684   -0.2339 C.ar    1  UNL1        0.0000
      2 C          -4.0417    1.5807   -0.6880 C.ar    1  UNL1        0.0000
      3 C          -5.4120    1.8160   -0.8152 C.ar    1  UNL1        0.0000
      4 C          -6.2839    0.8058   -0.4752 C.ar    1  UNL1        0.0000
      5 C          -5.8089   -0.4008   -0.0228 C.ar    1  UNL1        0.0000
      6 C          -4.4483   -0.6403    0.1057 C.ar    1  UNL1        0.0000
      7 C          -4.0035   -1.8789    0.5688 C.ar    1  UNL1        0.0000
      8 C          -2.6620   -2.1221    0.6981 C.ar    1  UNL1        0.0000
      9 C          -1.7766   -1.1293    0.3648 C.ar    1  UNL1        0.0000
     10 C          -2.2095    0.1170   -0.1008 C.ar    1  UNL1        0.0000
     11 C          -1.2719    1.1640   -0.4521 C.ar    1  UNL1        0.0000
     12 C           0.0653    1.0412   -0.3667 C.ar    1  UNL1        0.0000
     13 B           0.6340   -0.3071    0.1400 B       1  UNL1        0.0000
     14 C           2.1611   -0.5792    0.2854 C.ar    1  UNL1        0.0000
     15 N           3.1014    0.4270   -0.0509 N.pl3   1  UNL1        0.0000
     16 C           3.8568    0.3268   -1.3101 C.3     1  UNL1        0.0000
     17 C           5.3075    0.2461   -0.9529 C.3     1  UNL1        0.0000
     18 O           5.6002    0.7311    0.3125 O.3     1  UNL1        0.0000
     19 C           4.8778    1.8752    0.6249 C.3     1  UNL1        0.0000
     20 C           3.3910    1.5748    0.7575 C.3     1  UNL1        0.0000
     21 C           2.4698   -1.7870    0.7332 C.ar    1  UNL1        0.0000
     22 C           1.4821   -2.7920    1.0678 C.ar    1  UNL1        0.0000
     23 C           0.1586   -2.6097    0.9612 C.ar    1  UNL1        0.0000
     24 N          -0.3834   -1.3804    0.4985 N.ar    1  UNL1        0.0000
     25 H          -3.3905    2.3959   -0.9639 H       1  UNL1        0.0000
     26 H          -5.7456    2.7829   -1.1764 H       1  UNL1        0.0000
     27 H          -7.3541    1.0013   -0.5789 H       1  UNL1        0.0000
     28 H          -6.5247   -1.1756    0.2365 H       1  UNL1        0.0000
     29 H          -4.7553   -2.6314    0.8190 H       1  UNL1        0.0000
     30 H          -2.3541   -3.0934    1.0600 H       1  UNL1        0.0000
     31 H          -1.5641    2.1574   -0.8215 H       1  UNL1        0.0000
     32 H           0.7373    1.8583   -0.6427 H       1  UNL1        0.0000
     33 H           3.5031   -0.5696   -1.8691 H       1  UNL1        0.0000
     34 H           3.6140    1.2406   -1.8774 H       1  UNL1        0.0000
     35 H           5.9198    0.7550   -1.7384 H       1  UNL1        0.0000
     36 H           5.5837   -0.8424   -0.9469 H       1  UNL1        0.0000
     37 H           5.2231    2.2171    1.6229 H       1  UNL1        0.0000
     38 H           5.0747    2.6958   -0.0903 H       1  UNL1        0.0000
     39 H           3.0754    1.4749    1.8121 H       1  UNL1        0.0000
     40 H           2.8668    2.4485    0.2935 H       1  UNL1        0.0000
     41 H           3.5402   -1.9840    0.8374 H       1  UNL1        0.0000
     42 H           1.8144   -3.7561    1.4278 H       1  UNL1        0.0000
     43 H          -0.4886   -3.4224    1.2364 H       1  UNL1        0.0000
@<TRIPOS>BOND
     1     1     2   ar
     2     2     3   ar
     3     3     4   ar
     4     4     5   ar
     5     5     6   ar
     6     6     7   ar
     7     7     8   ar
     8     8     9   ar
     9     9    10   ar
    10    10    11   ar
    11    11    12   ar
    12    12    13   ar
    13    13    14   ar
    14    14    15    1
    15    15    16    1
    16    16    17    1
    17    17    18    1
    18    18    19    1
    19    19    20    1
    20    14    21   ar
    21    21    22   ar
    22    22    23   ar
    23    23    24   ar
    24     6     1   ar
    25    10     1   ar
    26    24     9   ar
    27    24    13   ar
    28    20    15    1
    29     2    25    1
    30     3    26    1
    31     4    27    1
    32     5    28    1
    33     7    29    1
    34     8    30    1
    35    11    31    1
    36    12    32    1
    37    16    33    1
    38    16    34    1
    39    17    35    1
    40    17    36    1
    41    19    37    1
    42    19    38    1
    43    20    39    1
    44    20    40    1
    45    21    41    1
    46    22    42    1
    47    23    43    1
