@<TRIPOS>MOLECULE
*****
 30 33 0 0 0
SMALL
GASTEIGER

@<TRIPOS>ATOM
      1 C          -1.7651    0.5040   -0.0626 C.ar    1  UNL1        0.0000
      2 C          -2.5407    1.6383   -0.0975 C.ar    1  UNL1        0.0000
      3 C          -3.9435    1.5775   -0.1435 C.ar    1  UNL1        0.0000
      4 C          -4.5873    0.3689   -0.1550 C.ar    1  UNL1        0.0000
      5 C          -3.8344   -0.7803   -0.1207 C.ar    1  UNL1        0.0000
      6 C          -2.4451   -0.7041   -0.0753 C.ar    1  UNL1        0.0000
      7 C          -1.6745   -1.8504   -0.0404 C.ar    1  UNL1        0.0000
      8 C          -0.2964   -1.7952    0.0048 C.ar    1  UNL1        0.0000
      9 C           0.3337   -0.5757    0.0157 C.ar    1  UNL1        0.0000
     10 C          -0.3909    0.6171   -0.0180 C.ar    1  UNL1        0.0000
     11 C           0.2668    1.9132   -0.0067 C.ar    1  UNL1        0.0000
     12 C           1.6046    2.0570    0.0364 C.ar    1  UNL1        0.0000
     13 B           2.4827    0.7909    0.0758 B       1  UNL1        0.0000
     14 C           4.0252    0.7533    0.1272 C.ar    1  UNL1        0.0000
     15 C           4.6386   -0.4406    0.1572 C.ar    1  UNL1        0.0000
     16 C           3.8813   -1.6810    0.1423 C.ar    1  UNL1        0.0000
     17 C           2.5474   -1.7315    0.0985 C.ar    1  UNL1        0.0000
     18 N           1.7432   -0.5568    0.0623 N.ar    1  UNL1        0.0000
     19 H          -2.1491    2.6177   -0.0925 H       1  UNL1        0.0000
     20 H          -4.5244    2.4794   -0.1701 H       1  UNL1        0.0000
     21 H          -5.6869    0.3234   -0.1910 H       1  UNL1        0.0000
     22 H          -4.3136   -1.7472   -0.1287 H       1  UNL1        0.0000
     23 H          -2.2277   -2.7966   -0.0510 H       1  UNL1        0.0000
     24 H           0.2153   -2.7348    0.0294 H       1  UNL1        0.0000
     25 H          -0.2938    2.8002   -0.0325 H       1  UNL1        0.0000
     26 H           2.0898    3.0172    0.0447 H       1  UNL1        0.0000
     27 H           4.5437    1.6942    0.1367 H       1  UNL1        0.0000
     28 H           5.7171   -0.4397    0.1930 H       1  UNL1        0.0000
     29 H           4.4668   -2.6092    0.1692 H       1  UNL1        0.0000
     30 H           2.1173   -2.7092    0.0922 H       1  UNL1        0.0000
@<TRIPOS>BOND
     1     1     2   ar
     2     2     3   ar
     3     3     4   ar
     4     4     5   ar
     5     5     6   ar
     6     6     7   ar
     7     7     8   ar
     8     8     9   ar
     9     9    10   ar
    10    10    11   ar
    11    11    12   ar
    12    12    13   ar
    13    13    14   ar
    14    14    15   ar
    15    15    16   ar
    16    16    17   ar
    17    17    18   ar
    18     6     1   ar
    19    10     1   ar
    20    18     9   ar
    21    18    13   ar
    22     2    19    1
    23     3    20    1
    24     4    21    1
    25     5    22    1
    26     7    23    1
    27     8    24    1
    28    11    25    1
    29    12    26    1
    30    14    27    1
    31    15    28    1
    32    16    29    1
    33    17    30    1
