@<TRIPOS>MOLECULE
*****
 34 38 0 0 0
SMALL
GASTEIGER

@<TRIPOS>ATOM
      1 C          -2.5087    0.0293   -0.0078 C.ar    1  UNL1        0.0000
      2 C          -3.7603   -0.5098   -0.2189 C.ar    1  UNL1        0.0000
      3 C          -4.8977    0.2579    0.0600 C.ar    1  UNL1        0.0000
      4 C          -4.8130    1.5298    0.5368 C.ar    1  UNL1        0.0000
      5 C          -3.5500    2.0442    0.7388 C.ar    1  UNL1        0.0000
      6 C          -2.3862    1.3241    0.4779 C.ar    1  UNL1        0.0000
      7 N          -1.1090    1.9266    0.7130 N.ar    1  UNL1        0.0000
      8 B           0.1387    1.1402    0.4279 B       1  UNL1        0.0000
      9 C          -0.0365   -0.3077   -0.1155 C.ar    1  UNL1        0.0000
     10 C          -1.3162   -0.8004   -0.3095 C.ar    1  UNL1        0.0000
     11 C          -1.4490   -2.0842   -0.7911 C.ar    1  UNL1        0.0000
     12 C          -0.3121   -2.8548   -1.0711 C.ar    1  UNL1        0.0000
     13 C           0.9418   -2.3116   -0.8584 C.ar    1  UNL1        0.0000
     14 C           1.1199   -1.0342   -0.3788 C.ar    1  UNL1        0.0000
     15 C           2.4561   -0.4520   -0.1509 C.ar    1  UNL1        0.0000
     16 C           3.5572   -1.2223   -0.4311 C.ar    1  UNL1        0.0000
     17 C           4.8402   -0.7032   -0.2271 C.ar    1  UNL1        0.0000
     18 C           5.0543    0.5712    0.2516 C.ar    1  UNL1        0.0000
     19 C           3.9264    1.3145    0.5214 C.ar    1  UNL1        0.0000
     20 C           2.6342    0.8382    0.3335 C.ar    1  UNL1        0.0000
     21 N           1.5369    1.6910    0.6445 N.ar    1  UNL1        0.0000
     22 H          -3.9715   -1.4832   -0.5849 H       1  UNL1        0.0000
     23 H          -5.9029   -0.1442   -0.0981 H       1  UNL1        0.0000
     24 H          -5.7141    2.1019    0.7443 H       1  UNL1        0.0000
     25 H          -3.4410    3.0695    1.1235 H       1  UNL1        0.0000
     26 H          -1.0202    2.8869    1.0732 H       1  UNL1        0.0000
     27 H          -2.4241   -2.4768   -0.9454 H       1  UNL1        0.0000
     28 H          -0.4737   -3.8501   -1.4449 H       1  UNL1        0.0000
     29 H           1.7998   -2.9166   -1.0785 H       1  UNL1        0.0000
     30 H           3.5502   -2.2274   -0.8074 H       1  UNL1        0.0000
     31 H           5.7250   -1.2932   -0.4414 H       1  UNL1        0.0000
     32 H           6.0546    0.9706    0.4086 H       1  UNL1        0.0000
     33 H           4.0897    2.3235    0.9004 H       1  UNL1        0.0000
     34 H           1.6611    2.6526    1.0055 H       1  UNL1        0.0000
@<TRIPOS>BOND
     1     1     2   ar
     2     2     3   ar
     3     3     4   ar
     4     4     5   ar
     5     5     6   ar
     6     6     7   ar
     7     7     8   ar
     8     8     9   ar
     9     9    10   ar
    10    10    11   ar
    11    11    12   ar
    12    12    13   ar
    13    13    14   ar
    14    14    15   ar
    15    15    16   ar
    16    16    17   ar
    17    17    18   ar
    18    18    19   ar
    19    15    20   ar
    20    20    21   ar
    21     6     1   ar
    22    10     1   ar
    23    21     8   ar
    24    14     9   ar
    25    20    19   ar
    26     2    22    1
    27     3    23    1
    28     4    24    1
    29     5    25    1
    30     7    26    1
    31    11    27    1
    32    12    28    1
    33    13    29    1
    34    16    30    1
    35    17    31    1
    36    18    32    1
    37    19    33    1
    38    21    34    1
