@<TRIPOS>MOLECULE
*****
 35 39 0 0 0
SMALL
GASTEIGER

@<TRIPOS>ATOM
      1 C           0.9958   -1.6651   -0.2532 C.ar    1  UNL1       -0.0161
      2 C           1.6519   -2.8924   -0.4318 C.ar    1  UNL1       -0.0540
      3 C           3.0366   -2.9430   -0.5790 C.ar    1  UNL1       -0.0606
      4 C           3.7830   -1.7669   -0.5494 C.ar    1  UNL1       -0.0540
      5 C           3.1536   -0.5261   -0.3723 C.ar    1  UNL1       -0.0167
      6 C           1.7467   -0.4709   -0.2224 C.ar    1  UNL1       -0.0024
      7 C           1.0939    0.7756   -0.0424 C.ar    1  UNL1       -0.0019
      8 C          -0.3165    0.8329    0.1080 C.ar    1  UNL1       -0.0090
      9 C          -1.0633   -0.3766    0.0754 C.ar    1  UNL1       -0.0095
     10 C          -2.5264   -0.4053    0.2234 C.ar    1  UNL1       -0.0144
     11 C          -3.3615   -0.3159   -0.8944 C.ar    1  UNL1       -0.0359
     12 C          -4.7331   -0.3495   -0.7040 C.ar    1  UNL1        0.0281
     13 N          -5.3206   -0.4663    0.5056 N.ar    1  UNL1       -0.2632
     14 C          -4.4987   -0.5551    1.5726 C.ar    1  UNL1        0.0281
     15 C          -3.1166   -0.5307    1.4847 C.ar    1  UNL1       -0.0359
     16 C          -0.3940   -1.6014   -0.1044 C.ar    1  UNL1       -0.0457
     17 C          -0.9087    2.1042    0.2840 C.ar    1  UNL1       -0.0534
     18 C          -0.1452    3.2707    0.3109 C.ar    1  UNL1       -0.0606
     19 C           1.2352    3.1999    0.1624 C.ar    1  UNL1       -0.0540
     20 C           1.8676    1.9637   -0.0146 C.ar    1  UNL1       -0.0167
     21 C           3.2583    1.8902   -0.1644 C.ar    1  UNL1       -0.0534
     22 C           3.8938    0.6608   -0.3411 C.ar    1  UNL1       -0.0534
     23 H           1.0866   -3.8215   -0.4577 H       1  UNL1        0.0624
     24 H           3.5342   -3.8994   -0.7168 H       1  UNL1        0.0618
     25 H           4.8629   -1.8261   -0.6659 H       1  UNL1        0.0624
     26 H          -2.9518   -0.2186   -1.8946 H       1  UNL1        0.0639
     27 H          -5.4160   -0.2809   -1.5460 H       1  UNL1        0.0830
     28 H          -4.9960   -0.6494    2.5337 H       1  UNL1        0.0830
     29 H          -2.5115   -0.6049    2.3826 H       1  UNL1        0.0639
     30 H          -0.9776   -2.5214   -0.1275 H       1  UNL1        0.0630
     31 H          -1.9862    2.2015    0.4037 H       1  UNL1        0.0624
     32 H          -0.6302    4.2337    0.4480 H       1  UNL1        0.0618
     33 H           1.8147    4.1201    0.1860 H       1  UNL1        0.0624
     34 H           3.8637    2.7939   -0.1449 H       1  UNL1        0.0624
     35 H           4.9754    0.6403   -0.4543 H       1  UNL1        0.0624
@<TRIPOS>BOND
     1     1     2   ar
     2     2     3   ar
     3     3     4   ar
     4     4     5   ar
     5     5     6   ar
     6     6     7   ar
     7     7     8   ar
     8     8     9   ar
     9     9    10    1
    10    10    11   ar
    11    11    12   ar
    12    12    13   ar
    13    13    14   ar
    14    14    15   ar
    15     9    16   ar
    16     8    17   ar
    17    17    18   ar
    18    18    19   ar
    19     7    20   ar
    20    20    21   ar
    21    21    22   ar
    22     6     1   ar
    23    16     1   ar
    24    22     5   ar
    25    15    10   ar
    26    20    19   ar
    27     2    23    1
    28     3    24    1
    29     4    25    1
    30    11    26    1
    31    12    27    1
    32    14    28    1
    33    15    29    1
    34    16    30    1
    35    17    31    1
    36    18    32    1
    37    19    33    1
    38    21    34    1
    39    22    35    1
