@<TRIPOS>MOLECULE
*****
 35 39 0 0 0
SMALL
GASTEIGER

@<TRIPOS>ATOM
      1 C          -3.1779   -0.1108    1.0748 C.ar    1  UNL1       -0.0167
      2 C          -4.5764   -0.0246    1.0085 C.ar    1  UNL1       -0.0540
      3 C          -5.2117    0.3060   -0.1881 C.ar    1  UNL1       -0.0606
      4 C          -4.4578    0.5550   -1.3345 C.ar    1  UNL1       -0.0540
      5 C          -3.0577    0.4769   -1.2998 C.ar    1  UNL1       -0.0167
      6 C          -2.4125    0.1416   -0.0870 C.ar    1  UNL1       -0.0025
      7 C          -0.9987    0.0586   -0.0360 C.ar    1  UNL1       -0.0024
      8 C          -0.3535   -0.2775    1.1742 C.ar    1  UNL1       -0.0161
      9 C          -1.1276   -0.5236    2.3167 C.ar    1  UNL1       -0.0534
     10 C          -2.5215   -0.4415    2.2677 C.ar    1  UNL1       -0.0534
     11 C           1.0485   -0.3565    1.2078 C.ar    1  UNL1       -0.0462
     12 C           1.8267   -0.1072    0.0659 C.ar    1  UNL1       -0.0166
     13 C           3.2939   -0.1934    0.1189 C.ar    1  UNL1       -0.0150
     14 C           3.9351   -1.3618    0.5461 C.ar    1  UNL1       -0.0359
     15 C           5.3205   -1.3958    0.5772 C.ar    1  UNL1        0.0281
     16 N           6.1053   -0.3585    0.2202 N.ar    1  UNL1       -0.2632
     17 C           5.4749    0.7619   -0.1878 C.ar    1  UNL1        0.0281
     18 C           4.0962    0.8903   -0.2563 C.ar    1  UNL1       -0.0359
     19 C           1.1670    0.2264   -1.1278 C.ar    1  UNL1       -0.0462
     20 C          -0.2334    0.3120   -1.1953 C.ar    1  UNL1       -0.0161
     21 C          -0.8893    0.6421   -2.3894 C.ar    1  UNL1       -0.0534
     22 C          -2.2832    0.7236   -2.4411 C.ar    1  UNL1       -0.0534
     23 H          -5.1827   -0.2150    1.8912 H       1  UNL1        0.0624
     24 H          -6.2961    0.3696   -0.2272 H       1  UNL1        0.0618
     25 H          -4.9727    0.8112   -2.2577 H       1  UNL1        0.0624
     26 H          -0.6510   -0.7824    3.2598 H       1  UNL1        0.0624
     27 H          -3.0913   -0.6388    3.1731 H       1  UNL1        0.0624
     28 H           1.5456   -0.6048    2.1446 H       1  UNL1        0.0630
     29 H           3.3686   -2.2398    0.8395 H       1  UNL1        0.0639
     30 H           5.8502   -2.2880    0.8988 H       1  UNL1        0.0830
     31 H           6.1269    1.5847   -0.4667 H       1  UNL1        0.0830
     32 H           3.6588    1.8272   -0.5859 H       1  UNL1        0.0639
     33 H           1.7557    0.4110   -2.0254 H       1  UNL1        0.0630
     34 H          -0.3193    0.8394   -3.2948 H       1  UNL1        0.0624
     35 H          -2.7595    0.9823   -3.3842 H       1  UNL1        0.0624
@<TRIPOS>BOND
     1     1     2   ar
     2     2     3   ar
     3     3     4   ar
     4     4     5   ar
     5     5     6   ar
     6     6     7   ar
     7     7     8   ar
     8     8     9   ar
     9     9    10   ar
    10     8    11   ar
    11    11    12   ar
    12    12    13    1
    13    13    14   ar
    14    14    15   ar
    15    15    16   ar
    16    16    17   ar
    17    17    18   ar
    18    12    19   ar
    19     7    20   ar
    20    20    21   ar
    21    21    22   ar
    22     6     1   ar
    23    10     1   ar
    24    22     5   ar
    25    18    13   ar
    26    20    19   ar
    27     2    23    1
    28     3    24    1
    29     4    25    1
    30     9    26    1
    31    10    27    1
    32    11    28    1
    33    14    29    1
    34    15    30    1
    35    17    31    1
    36    18    32    1
    37    19    33    1
    38    21    34    1
    39    22    35    1
