@<TRIPOS>MOLECULE
*****
 35 39 0 0 0
SMALL
GASTEIGER

@<TRIPOS>ATOM
      1 C          -3.2112   -1.2468   -0.2958 C.ar    1  UNL1       -0.0167
      2 C          -4.6132   -1.2658   -0.2539 C.ar    1  UNL1       -0.0540
      3 C          -5.3273   -0.1344    0.1390 C.ar    1  UNL1       -0.0606
      4 C          -4.6498    1.0313    0.4953 C.ar    1  UNL1       -0.0540
      5 C          -3.2483    1.0810    0.4634 C.ar    1  UNL1       -0.0167
      6 C          -2.5235   -0.0654    0.0653 C.ar    1  UNL1       -0.0025
      7 C          -1.1067   -0.0303    0.0281 C.ar    1  UNL1       -0.0024
      8 C          -0.3821   -1.1712   -0.3682 C.ar    1  UNL1       -0.0161
      9 C          -1.0791   -2.3348   -0.7232 C.ar    1  UNL1       -0.0534
     10 C          -2.4753   -2.3727   -0.6877 C.ar    1  UNL1       -0.0534
     11 C           1.0228   -1.1167   -0.3987 C.ar    1  UNL1       -0.0448
     12 C           1.7495    0.0402   -0.0469 C.ar    1  UNL1        0.0015
     13 C           3.2385    0.0410   -0.0978 C.ar    1  UNL1        0.0710
     14 N           3.8113   -1.1267   -0.4976 N.ar    1  UNL1       -0.2550
     15 C           5.1592   -1.1989   -0.5674 C.ar    1  UNL1        0.0283
     16 C           6.0017   -0.1511   -0.2551 C.ar    1  UNL1       -0.0436
     17 C           5.4247    1.0410    0.1529 C.ar    1  UNL1       -0.0583
     18 C           4.0342    1.1403    0.2329 C.ar    1  UNL1       -0.0357
     19 C           0.9922    1.1615    0.3442 C.ar    1  UNL1       -0.0448
     20 C          -0.4162    1.1449    0.3871 C.ar    1  UNL1       -0.0161
     21 C          -1.1518    2.2729    0.7796 C.ar    1  UNL1       -0.0534
     22 C          -2.5486    2.2419    0.8174 C.ar    1  UNL1       -0.0534
     23 H          -5.1600   -2.1652   -0.5280 H       1  UNL1        0.0624
     24 H          -6.4135   -0.1612    0.1675 H       1  UNL1        0.0618
     25 H          -5.2253    1.9028    0.7988 H       1  UNL1        0.0624
     26 H          -0.5366   -3.2261   -1.0320 H       1  UNL1        0.0624
     27 H          -2.9826   -3.2925   -0.9697 H       1  UNL1        0.0624
     28 H           1.5702   -2.0077   -0.7076 H       1  UNL1        0.0630
     29 H           5.5532   -2.1573   -0.8929 H       1  UNL1        0.0830
     30 H           7.0773   -0.2612   -0.3278 H       1  UNL1        0.0633
     31 H           6.0483    1.8929    0.4088 H       1  UNL1        0.0619
     32 H           3.6070    2.0821    0.5542 H       1  UNL1        0.0639
     33 H           1.4895    2.0847    0.6277 H       1  UNL1        0.0630
     34 H          -0.6426    3.1919    1.0614 H       1  UNL1        0.0624
     35 H          -3.0859    3.1356    1.1268 H       1  UNL1        0.0624
@<TRIPOS>BOND
     1     1     2   ar
     2     2     3   ar
     3     3     4   ar
     4     4     5   ar
     5     5     6   ar
     6     6     7   ar
     7     7     8   ar
     8     8     9   ar
     9     9    10   ar
    10     8    11   ar
    11    11    12   ar
    12    12    13    1
    13    13    14   ar
    14    14    15   ar
    15    15    16   ar
    16    16    17   ar
    17    17    18   ar
    18    12    19   ar
    19     7    20   ar
    20    20    21   ar
    21    21    22   ar
    22     6     1   ar
    23    10     1   ar
    24    22     5   ar
    25    18    13   ar
    26    20    19   ar
    27     2    23    1
    28     3    24    1
    29     4    25    1
    30     9    26    1
    31    10    27    1
    32    11    28    1
    33    15    29    1
    34    16    30    1
    35    17    31    1
    36    18    32    1
    37    19    33    1
    38    21    34    1
    39    22    35    1
