@<TRIPOS>MOLECULE
*****
 35 39 0 0 0
SMALL
GASTEIGER

@<TRIPOS>ATOM
      1 C          -3.3349   -0.6036    0.2560 C.ar    1  UNL1       -0.0167
      2 C          -4.5462    0.0500   -0.0148 C.ar    1  UNL1       -0.0540
      3 C          -4.5554    1.3584   -0.4942 C.ar    1  UNL1       -0.0606
      4 C          -3.3533    2.0297   -0.7089 C.ar    1  UNL1       -0.0540
      5 C          -2.1271    1.4009   -0.4469 C.ar    1  UNL1       -0.0167
      6 C          -2.1111    0.0743    0.0394 C.ar    1  UNL1       -0.0025
      7 C          -0.8752   -0.5734    0.3087 C.ar    1  UNL1       -0.0019
      8 C          -0.8845   -1.9028    0.7953 C.ar    1  UNL1       -0.0167
      9 C          -2.1048   -2.5585    1.0038 C.ar    1  UNL1       -0.0534
     10 C          -3.3150   -1.9172    0.7376 C.ar    1  UNL1       -0.0534
     11 C           0.3254   -2.5490    1.0633 C.ar    1  UNL1       -0.0534
     12 C           1.5371   -1.8944    0.8550 C.ar    1  UNL1       -0.0529
     13 C           1.5751   -0.5754    0.3730 C.ar    1  UNL1       -0.0100
     14 C           2.8905    0.0523    0.1772 C.ar    1  UNL1       -0.0144
     15 C           3.5622   -0.0575   -1.0441 C.ar    1  UNL1       -0.0359
     16 C           4.7995    0.5504   -1.1795 C.ar    1  UNL1        0.0281
     17 N           5.4050    1.2483   -0.1954 N.ar    1  UNL1       -0.2632
     18 C           4.7434    1.3406    0.9775 C.ar    1  UNL1        0.0281
     19 C           3.5036    0.7682    1.2100 C.ar    1  UNL1       -0.0359
     20 C           0.3549    0.1019    0.0932 C.ar    1  UNL1       -0.0090
     21 C           0.2993    1.4261   -0.3932 C.ar    1  UNL1       -0.0528
     22 C          -0.9155    2.0632   -0.6580 C.ar    1  UNL1       -0.0534
     23 H          -5.4947   -0.4575    0.1465 H       1  UNL1        0.0624
     24 H          -5.4998    1.8551   -0.7006 H       1  UNL1        0.0618
     25 H          -3.3805    3.0506   -1.0835 H       1  UNL1        0.0624
     26 H          -2.1258   -3.5800    1.3774 H       1  UNL1        0.0624
     27 H          -4.2441   -2.4557    0.9108 H       1  UNL1        0.0624
     28 H           0.3375   -3.5702    1.4377 H       1  UNL1        0.0624
     29 H           2.4648   -2.4214    1.0721 H       1  UNL1        0.0624
     30 H           3.1287   -0.6033   -1.8758 H       1  UNL1        0.0639
     31 H           5.3526    0.4901   -2.1124 H       1  UNL1        0.0830
     32 H           5.2520    1.9061    1.7529 H       1  UNL1        0.0830
     33 H           3.0233    0.8811    2.1765 H       1  UNL1        0.0639
     34 H           1.2139    1.9877   -0.5752 H       1  UNL1        0.0624
     35 H          -0.9011    3.0847   -1.0318 H       1  UNL1        0.0624
@<TRIPOS>BOND
     1     1     2   ar
     2     2     3   ar
     3     3     4   ar
     4     4     5   ar
     5     5     6   ar
     6     6     7   ar
     7     7     8   ar
     8     8     9   ar
     9     9    10   ar
    10     8    11   ar
    11    11    12   ar
    12    12    13   ar
    13    13    14    1
    14    14    15   ar
    15    15    16   ar
    16    16    17   ar
    17    17    18   ar
    18    18    19   ar
    19     7    20   ar
    20    20    21   ar
    21    21    22   ar
    22     6     1   ar
    23    10     1   ar
    24    22     5   ar
    25    20    13   ar
    26    19    14   ar
    27     2    23    1
    28     3    24    1
    29     4    25    1
    30     9    26    1
    31    10    27    1
    32    11    28    1
    33    12    29    1
    34    15    30    1
    35    16    31    1
    36    18    32    1
    37    19    33    1
    38    21    34    1
    39    22    35    1
