@<TRIPOS>MOLECULE
*****
 24 27 0 0 0
SMALL
GASTEIGER

@<TRIPOS>ATOM
      1 C          -1.1598   -1.1772   -0.0655 C.ar    1  UNL1        0.0000
      2 C          -2.5412   -1.1485   -0.1409 C.ar    1  UNL1        0.0000
      3 C          -3.1958    0.0619   -0.1710 C.ar    1  UNL1        0.0000
      4 C          -2.4700    1.2338   -0.1258 C.ar    1  UNL1        0.0000
      5 C          -1.0853    1.2106   -0.0502 C.ar    1  UNL1        0.0000
      6 C          -0.4101    0.0034   -0.0189 C.ar    1  UNL1        0.0000
      7 N           1.0051   -0.0267    0.0583 N.ar    1  UNL1        0.0000
      8 C           1.7563   -1.1315    0.0941 C.ar    1  UNL1        0.0000
      9 B           1.0171   -2.4995    0.0473 B       1  UNL1        0.0000
     10 N          -0.5032   -2.4383   -0.0355 N.ar    1  UNL1        0.0000
     11 C           3.0894   -0.7435    0.1685 C.ar    1  UNL1        0.0000
     12 C           3.1324    0.6354    0.1772 C.ar    1  UNL1        0.0000
     13 C           1.8018    1.0495    0.1066 C.ar    1  UNL1        0.0000
     14 B           1.1149    2.4478    0.0755 B       1  UNL1        0.0000
     15 N          -0.4013    2.4761   -0.0070 N.ar    1  UNL1        0.0000
     16 H          -3.1099   -2.0824   -0.1763 H       1  UNL1        0.0000
     17 H          -4.2810    0.0902   -0.2301 H       1  UNL1        0.0000
     18 H          -3.0226    2.1597   -0.1516 H       1  UNL1        0.0000
     19 H           1.6004   -3.4839   -0.2403 H       1  UNL1        0.0000
     20 H          -1.0953   -3.2950   -0.0722 H       1  UNL1        0.0000
     21 H           3.9118   -1.4299    0.2100 H       1  UNL1        0.0000
     22 H           3.9847    1.2903    0.2266 H       1  UNL1        0.0000
     23 H           1.7582    3.4157    0.3511 H       1  UNL1        0.0000
     24 H          -0.8965    3.3821   -0.0298 H       1  UNL1        0.0000
@<TRIPOS>BOND
     1     1     2   ar
     2     2     3   ar
     3     3     4   ar
     4     4     5   ar
     5     5     6   ar
     6     6     7   ar
     7     7     8   ar
     8     8     9   ar
     9     9    10   ar
    10     8    11   ar
    11    11    12   ar
    12    12    13   ar
    13    13    14   ar
    14    14    15   ar
    15     6     1   ar
    16    10     1   ar
    17    15     5   ar
    18    13     7   ar
    19     2    16    1
    20     3    17    1
    21     4    18    1
    22     9    19    1
    23    10    20    1
    24    11    21    1
    25    12    22    1
    26    14    23    1
    27    15    24    1
