@<TRIPOS>MOLECULE
*****
 43 49 0 0 0
SMALL
GASTEIGER

@<TRIPOS>ATOM
      1 SI         -1.8296   -1.4553   -0.5978 Si      1  UNL1        0.0000
      2 C          -3.0927   -0.1454   -0.0575 C.2     1  UNL1        0.0000
      3 C          -2.4375    0.9545    0.3691 C.2     1  UNL1        0.0000
      4 C          -0.9805    0.8991    0.3240 C.2     1  UNL1        0.0000
      5 C          -0.4367   -0.2480   -0.1403 C.2     1  UNL1        0.0000
      6 C           0.9595   -0.5375   -0.2773 C.ar    1  UNL1        0.0000
      7 S           2.1472    0.6429    0.1711 S.2     1  UNL1        0.0000
      8 C           3.5146   -0.3225   -0.2329 C.ar    1  UNL1        0.0000
      9 C           4.8667    0.1733   -0.0581 C.ar    1  UNL1        0.0000
     10 S           6.3109   -0.7345   -0.4411 S.2     1  UNL1        0.0000
     11 C           7.3969    0.5264    0.0414 C.ar    1  UNL1        0.0000
     12 C           6.6469    1.5620    0.4640 C.ar    1  UNL1        0.0000
     13 C           6.8108    2.8571    0.9748 C.ar    1  UNL1        0.0000
     14 C           5.5095    3.3262    1.1816 C.ar    1  UNL1        0.0000
     15 O           4.5210    2.4239    0.8397 O.2     1  UNL1        0.0000
     16 C           5.2847    1.3760    0.4121 C.ar    1  UNL1        0.0000
     17 C           3.0762   -1.5444   -0.7099 C.ar    1  UNL1        0.0000
     18 N           3.9111   -2.5468   -1.1202 N.ar    1  UNL1        0.0000
     19 C           3.2305   -3.6394   -1.5421 C.ar    1  UNL1        0.0000
     20 C           1.8424   -3.7531   -1.5650 C.ar    1  UNL1        0.0000
     21 N           0.9776   -2.7869   -1.1686 N.ar    1  UNL1        0.0000
     22 C           1.6277   -1.6643   -0.7343 C.ar    1  UNL1        0.0000
     23 C          -4.5080   -0.2907   -0.0927 C.ar    1  UNL1        0.0000
     24 S          -5.2937   -1.7666   -0.6649 S.2     1  UNL1        0.0000
     25 C          -6.8991   -1.1864   -0.4096 C.ar    1  UNL1        0.0000
     26 C          -6.8087    0.0610    0.0831 C.ar    1  UNL1        0.0000
     27 N          -7.8523    0.8723    0.4210 N.ar    1  UNL1        0.0000
     28 C          -7.1804    2.0080    0.8602 C.ar    1  UNL1        0.0000
     29 C          -5.7814    1.8453    0.7735 C.ar    1  UNL1        0.0000
     30 C          -5.5287    0.5422    0.2534 C.ar    1  UNL1        0.0000
     31 H          -1.8761   -2.6487    0.2907 H       1  UNL1        0.0000
     32 H          -1.9132   -1.7146   -2.0611 H       1  UNL1        0.0000
     33 H          -2.9102    1.8558    0.7346 H       1  UNL1        0.0000
     34 H          -0.4226    1.7656    0.6594 H       1  UNL1        0.0000
     35 H           8.4690    0.4081   -0.0226 H       1  UNL1        0.0000
     36 H           7.7229    3.4002    1.1755 H       1  UNL1        0.0000
     37 H           5.1300    4.2663    1.5604 H       1  UNL1        0.0000
     38 H           3.8527   -4.4638   -1.8785 H       1  UNL1        0.0000
     39 H           1.3756   -4.6677   -1.9198 H       1  UNL1        0.0000
     40 H          -7.7763   -1.7777   -0.6299 H       1  UNL1        0.0000
     41 H          -8.8430    0.6733    0.3579 H       1  UNL1        0.0000
     42 H          -7.7544    2.8581    1.2060 H       1  UNL1        0.0000
     43 H          -5.0593    2.5969    1.0597 H       1  UNL1        0.0000
@<TRIPOS>BOND
     1     1     2    1
     2     2     3    2
     3     3     4    1
     4     4     5    2
     5     5     6    1
     6     6     7   ar
     7     7     8   ar
     8     8     9    1
     9     9    10   ar
    10    10    11   ar
    11    11    12   ar
    12    12    13   ar
    13    13    14   ar
    14    14    15   ar
    15    15    16   ar
    16     8    17   ar
    17    17    18   ar
    18    18    19   ar
    19    19    20   ar
    20    20    21   ar
    21    21    22   ar
    22     2    23    1
    23    23    24   ar
    24    24    25   ar
    25    25    26   ar
    26    26    27   ar
    27    27    28   ar
    28    28    29   ar
    29    29    30   ar
    30     5     1    1
    31    22     6   ar
    32    30    23   ar
    33    16     9   ar
    34    22    17   ar
    35    30    26   ar
    36    16    12   ar
    37     1    31    1
    38     1    32    1
    39     3    33    1
    40     4    34    1
    41    11    35    1
    42    13    36    1
    43    14    37    1
    44    19    38    1
    45    20    39    1
    46    25    40    1
    47    27    41    1
    48    28    42    1
    49    29    43    1
