@<TRIPOS>MOLECULE
*****
 24 26 0 0 0
SMALL
GASTEIGER

@<TRIPOS>ATOM
      1 C          -1.7826   -0.1952   -0.7992 C.ar    1  UNL1        0.1132
      2 N          -0.4996   -0.1100   -1.1736 N.ar    1  UNL1       -0.1471
      3 N           0.1569    0.0134    0.0061 N.ar    1  UNL1       -0.1492
      4 C           1.5723    0.1346    0.0611 C.ar    1  UNL1        0.0862
      5 C           2.2210    0.2608    1.2986 C.ar    1  UNL1       -0.0345
      6 C           3.6116    0.3796    1.3482 C.ar    1  UNL1       -0.0597
      7 C           4.3571    0.3730    0.1695 C.ar    1  UNL1       -0.0616
      8 C           3.7167    0.2478   -1.0632 C.ar    1  UNL1       -0.0597
      9 C           2.3265    0.1285   -1.1217 C.ar    1  UNL1       -0.0345
     10 N          -0.6000    0.0159    1.1309 N.ar    1  UNL1       -0.1471
     11 C          -1.8461   -0.1155    0.6580 C.ar    1  UNL1        0.1132
     12 C          -3.0620   -0.1758    1.3618 C.ar    1  UNL1       -0.0324
     13 C          -4.2017   -0.3183    0.5466 C.ar    1  UNL1       -0.0596
     14 C          -4.1399   -0.3958   -0.8711 C.ar    1  UNL1       -0.0596
     15 C          -2.9331   -0.3375   -1.5950 C.ar    1  UNL1       -0.0324
     16 H           1.6581    0.2682    2.2299 H       1  UNL1        0.0639
     17 H           4.1131    0.4774    2.3078 H       1  UNL1        0.0618
     18 H           5.4395    0.4657    0.2116 H       1  UNL1        0.0618
     19 H           4.3000    0.2429   -1.9806 H       1  UNL1        0.0618
     20 H           1.8464    0.0318   -2.0936 H       1  UNL1        0.0639
     21 H          -3.1123   -0.1171    2.4407 H       1  UNL1        0.0640
     22 H          -5.1796   -0.3719    1.0264 H       1  UNL1        0.0618
     23 H          -5.0728   -0.5059   -1.4251 H       1  UNL1        0.0618
     24 H          -2.8894   -0.3967   -2.6741 H       1  UNL1        0.0640
@<TRIPOS>BOND
     1     1     2   ar
     2     2     3   ar
     3     3     4    1
     4     4     5   ar
     5     5     6   ar
     6     6     7   ar
     7     7     8   ar
     8     8     9   ar
     9     3    10   ar
    10    10    11   ar
    11    11    12   ar
    12    12    13   ar
    13    13    14   ar
    14    14    15   ar
    15    11     1   ar
    16    15     1   ar
    17     9     4   ar
    18     5    16    1
    19     6    17    1
    20     7    18    1
    21     8    19    1
    22     9    20    1
    23    12    21    1
    24    13    22    1
    25    14    23    1
    26    15    24    1
