@<TRIPOS>MOLECULE
*****
 38 43 0 0 0
SMALL
GASTEIGER

@<TRIPOS>ATOM
      1 C           2.3352    1.4729    0.2441 C.ar    1  UNL1        0.0068
      2 C           3.1132    0.3270   -0.0451 C.ar    1  UNL1        0.0520
      3 N           2.2497   -0.7530   -0.2856 N.ar    1  UNL1       -0.3499
      4 C           1.0211   -0.2529   -0.1414 C.ar    1  UNL1        0.1098
      5 C           1.0026    1.0374    0.1670 C.ar    1  UNL1        0.1558
      6 O          -0.2831    1.4629    0.2945 O.2     1  UNL1       -0.4510
      7 C          -1.0276    0.3484    0.0434 C.ar    1  UNL1        0.1635
      8 C          -0.2203   -0.6768   -0.2176 C.ar    1  UNL1        0.1104
      9 N          -0.8615   -1.8177   -0.4771 N.ar    1  UNL1       -0.3499
     10 C          -2.2156   -1.4896   -0.3715 C.ar    1  UNL1        0.0512
     11 C          -3.3332   -2.3136   -0.5457 C.ar    1  UNL1       -0.0371
     12 C          -4.6053   -1.7483   -0.3851 C.ar    1  UNL1       -0.0521
     13 C          -4.7832   -0.3956   -0.0586 C.ar    1  UNL1       -0.0171
     14 C          -6.0623    0.1609    0.1001 C.ar    1  UNL1       -0.0540
     15 C          -6.2212    1.5113    0.4257 C.ar    1  UNL1       -0.0612
     16 C          -5.1057    2.3286    0.5983 C.ar    1  UNL1       -0.0611
     17 C          -3.8242    1.8006    0.4465 C.ar    1  UNL1       -0.0533
     18 C          -3.6550    0.4409    0.1184 C.ar    1  UNL1       -0.0052
     19 C          -2.3601   -0.1133   -0.0400 C.ar    1  UNL1        0.0504
     20 C           4.5823    0.1959   -0.1060 C.ar    1  UNL1        0.0165
     21 C           5.2203   -1.0130   -0.4075 C.ar    1  UNL1       -0.0497
     22 C           6.6140   -1.0846   -0.4527 C.ar    1  UNL1       -0.0430
     23 C           7.3429    0.0619   -0.1936 C.ar    1  UNL1        0.0276
     24 N           6.7790    1.2486    0.1011 N.ar    1  UNL1       -0.2626
     25 C           5.4219    1.2850    0.1371 C.ar    1  UNL1        0.0366
     26 H           2.6834    2.4691    0.4750 H       1  UNL1        0.0676
     27 H           2.4815   -1.7086   -0.5184 H       1  UNL1        0.1661
     28 H          -0.4529   -2.7147   -0.6995 H       1  UNL1        0.1661
     29 H          -3.2280   -3.3641   -0.7986 H       1  UNL1        0.0638
     30 H          -5.4743   -2.3901   -0.5208 H       1  UNL1        0.0624
     31 H          -6.9495   -0.4548   -0.0290 H       1  UNL1        0.0624
     32 H          -7.2192    1.9253    0.5446 H       1  UNL1        0.0618
     33 H          -5.2324    3.3779    0.8514 H       1  UNL1        0.0618
     34 H          -2.9613    2.4486    0.5838 H       1  UNL1        0.0624
     35 H           4.6590   -1.9179   -0.6123 H       1  UNL1        0.0625
     36 H           7.1181   -2.0161   -0.6852 H       1  UNL1        0.0633
     37 H           8.4287    0.0558   -0.2170 H       1  UNL1        0.0829
     38 H           5.0231    2.2658    0.3793 H       1  UNL1        0.0836
@<TRIPOS>BOND
     1     1     2   ar
     2     2     3   ar
     3     3     4   ar
     4     4     5   ar
     5     5     6   ar
     6     6     7   ar
     7     7     8   ar
     8     8     9   ar
     9     9    10   ar
    10    10    11   ar
    11    11    12   ar
    12    12    13   ar
    13    13    14   ar
    14    14    15   ar
    15    15    16   ar
    16    16    17   ar
    17    17    18   ar
    18    18    19   ar
    19     2    20    1
    20    20    21   ar
    21    21    22   ar
    22    22    23   ar
    23    23    24   ar
    24    24    25   ar
    25     5     1   ar
    26    19     7   ar
    27    25    20   ar
    28     8     4   ar
    29    19    10   ar
    30    18    13   ar
    31     1    26    1
    32     3    27    1
    33     9    28    1
    34    11    29    1
    35    12    30    1
    36    14    31    1
    37    15    32    1
    38    16    33    1
    39    17    34    1
    40    21    35    1
    41    22    36    1
    42    23    37    1
    43    25    38    1
