@<TRIPOS>MOLECULE
*****
 46 52 0 0 0
SMALL
GASTEIGER

@<TRIPOS>ATOM
      1 C           2.4972    1.0553    1.0897 C.ar    1  UNL1        0.0067
      2 C           3.3311    0.3933    0.1867 C.ar    1  UNL1        0.0520
      3 N           2.5230   -0.3510   -0.6689 N.ar    1  UNL1       -0.3511
      4 C           1.2111   -0.1671   -0.3193 C.ar    1  UNL1        0.0939
      5 C           1.2007    0.6689    0.7256 C.ar    1  UNL1        0.1544
      6 O          -0.0627    0.9066    1.1380 O.2     1  UNL1       -0.4526
      7 C          -0.8766    0.1762    0.3002 C.ar    1  UNL1        0.1466
      8 C          -0.1230   -0.5232   -0.6422 C.ar    1  UNL1        0.0525
      9 C          -0.7701   -1.3353   -1.5972 C.ar    1  UNL1       -0.0045
     10 C           0.0047   -2.0398   -2.5479 C.ar    1  UNL1       -0.0533
     11 C          -0.6033   -2.8481   -3.5017 C.ar    1  UNL1       -0.0611
     12 C          -1.9838   -2.9610   -3.5166 C.ar    1  UNL1       -0.0611
     13 C          -2.7545   -2.2654   -2.5773 C.ar    1  UNL1       -0.0534
     14 C          -2.1837   -1.4265   -1.5819 C.ar    1  UNL1       -0.0093
     15 C          -2.9380   -0.6925   -0.5963 C.ar    1  UNL1       -0.0060
     16 C          -4.3442   -0.7523   -0.5425 C.ar    1  UNL1       -0.0527
     17 C          -5.0952   -0.0513    0.4017 C.ar    1  UNL1       -0.0534
     18 C          -4.4834    0.7569    1.3550 C.ar    1  UNL1       -0.0172
     19 C          -5.2915    1.4400    2.2819 C.ar    1  UNL1       -0.0540
     20 C          -4.7342    2.2605    3.2558 C.ar    1  UNL1       -0.0612
     21 C          -3.3595    2.4049    3.3103 C.ar    1  UNL1       -0.0611
     22 C          -2.5503    1.7277    2.3907 C.ar    1  UNL1       -0.0533
     23 C          -3.0737    0.8774    1.3767 C.ar    1  UNL1       -0.0066
     24 C          -2.3019    0.1378    0.3825 C.ar    1  UNL1        0.0334
     25 C           4.8022    0.4166    0.0814 C.ar    1  UNL1        0.0165
     26 C           5.5793    1.1783    0.9616 C.ar    1  UNL1       -0.0497
     27 C           6.9703    1.1909    0.8502 C.ar    1  UNL1       -0.0430
     28 C           7.5575    0.4349   -0.1477 C.ar    1  UNL1        0.0276
     29 N           6.8574   -0.3156   -1.0209 N.ar    1  UNL1       -0.2626
     30 C           5.5068   -0.3048   -0.8840 C.ar    1  UNL1        0.0366
     31 H           2.7781    1.7195    1.8934 H       1  UNL1        0.0676
     32 H           2.8126   -0.9433   -1.4351 H       1  UNL1        0.1660
     33 H           1.0868   -1.9672   -2.5561 H       1  UNL1        0.0624
     34 H          -0.0020   -3.3866   -4.2291 H       1  UNL1        0.0618
     35 H          -2.4715   -3.5899   -4.2574 H       1  UNL1        0.0618
     36 H          -3.8301   -2.3998   -2.6469 H       1  UNL1        0.0624
     37 H          -4.9114   -1.3562   -1.2448 H       1  UNL1        0.0624
     38 H          -6.1789   -0.1512    0.3759 H       1  UNL1        0.0624
     39 H          -6.3744    1.3359    2.2509 H       1  UNL1        0.0624
     40 H          -5.3707    2.7817    3.9648 H       1  UNL1        0.0618
     41 H          -2.9043    3.0417    4.0641 H       1  UNL1        0.0618
     42 H          -1.4821    1.8869    2.4919 H       1  UNL1        0.0624
     43 H           5.1187    1.7723    1.7455 H       1  UNL1        0.0625
     44 H           7.5780    1.7789    1.5289 H       1  UNL1        0.0633
     45 H           8.6360    0.4124   -0.2742 H       1  UNL1        0.0829
     46 H           5.0034   -0.9276   -1.6157 H       1  UNL1        0.0836
@<TRIPOS>BOND
     1     1     2   ar
     2     2     3   ar
     3     3     4   ar
     4     4     5   ar
     5     5     6   ar
     6     6     7   ar
     7     7     8   ar
     8     8     9   ar
     9     9    10   ar
    10    10    11   ar
    11    11    12   ar
    12    12    13   ar
    13    13    14   ar
    14    14    15   ar
    15    15    16   ar
    16    16    17   ar
    17    17    18   ar
    18    18    19   ar
    19    19    20   ar
    20    20    21   ar
    21    21    22   ar
    22    22    23   ar
    23    23    24   ar
    24     2    25    1
    25    25    26   ar
    26    26    27   ar
    27    27    28   ar
    28    28    29   ar
    29    29    30   ar
    30     5     1   ar
    31    24     7   ar
    32    30    25   ar
    33     8     4   ar
    34    14     9   ar
    35    24    15   ar
    36    23    18   ar
    37     1    31    1
    38     3    32    1
    39    10    33    1
    40    11    34    1
    41    12    35    1
    42    13    36    1
    43    16    37    1
    44    17    38    1
    45    19    39    1
    46    20    40    1
    47    21    41    1
    48    22    42    1
    49    26    43    1
    50    27    44    1
    51    28    45    1
    52    30    46    1
