@<TRIPOS>MOLECULE
*****
 34 38 0 0 0
SMALL
GASTEIGER

@<TRIPOS>ATOM
      1 C           1.4308    1.7547    0.0766 C.ar    1  UNL1       -0.0220
      2 C           2.1324    0.5554    0.0466 C.ar    1  UNL1        0.0480
      3 N           1.1989   -0.4613    0.0483 N.ar    1  UNL1       -0.3532
      4 C          -0.0655    0.0747    0.0785 C.ar    1  UNL1        0.0620
      5 C           0.0476    1.4242    0.0962 C.ar    1  UNL1        0.0387
      6 S          -1.4848    2.2097    0.1348 S.2     1  UNL1       -0.0845
      7 C          -2.3044    0.6698    0.1269 C.ar    1  UNL1        0.0478
      8 C          -1.4078   -0.4088    0.0952 C.ar    1  UNL1        0.0152
      9 C          -1.9104   -1.7309    0.0848 C.ar    1  UNL1       -0.0508
     10 C          -3.2885   -1.9601    0.1058 C.ar    1  UNL1       -0.0519
     11 C          -4.1829   -0.8882    0.1373 C.ar    1  UNL1        0.0015
     12 C          -5.5725   -1.0653    0.1594 C.ar    1  UNL1       -0.0511
     13 C          -6.4120    0.0460    0.1905 C.ar    1  UNL1       -0.0430
     14 C          -5.8384    1.3070    0.1987 C.ar    1  UNL1        0.0283
     15 N          -4.5077    1.5289    0.1784 N.ar    1  UNL1       -0.2538
     16 C          -3.7034    0.4362    0.1482 C.ar    1  UNL1        0.0853
     17 C           3.5887    0.3126    0.0173 C.ar    1  UNL1       -0.0017
     18 C           4.4888    1.3903    0.0170 C.ar    1  UNL1       -0.0526
     19 C           5.8719    1.1821   -0.0105 C.ar    1  UNL1       -0.0611
     20 C           6.3820   -0.1114   -0.0384 C.ar    1  UNL1       -0.0617
     21 C           5.5094   -1.1948   -0.0387 C.ar    1  UNL1       -0.0611
     22 C           4.1257   -0.9845   -0.0111 C.ar    1  UNL1       -0.0526
     23 H           1.8425    2.7543    0.0839 H       1  UNL1        0.0650
     24 H           1.3687   -1.4575    0.0307 H       1  UNL1        0.1659
     25 H          -1.2270   -2.5759    0.0603 H       1  UNL1        0.0625
     26 H          -3.6539   -2.9846    0.0973 H       1  UNL1        0.0624
     27 H          -6.0064   -2.0617    0.1525 H       1  UNL1        0.0625
     28 H          -7.4901   -0.0689    0.2079 H       1  UNL1        0.0633
     29 H          -6.4542    2.2017    0.2227 H       1  UNL1        0.0830
     30 H           4.1290    2.4154    0.0383 H       1  UNL1        0.0624
     31 H           6.5469    2.0340   -0.0101 H       1  UNL1        0.0618
     32 H           7.4562   -0.2742   -0.0598 H       1  UNL1        0.0618
     33 H           5.9033   -2.2077   -0.0604 H       1  UNL1        0.0618
     34 H           3.4869   -1.8614   -0.0125 H       1  UNL1        0.0624
@<TRIPOS>BOND
     1     1     2   ar
     2     2     3   ar
     3     3     4   ar
     4     4     5   ar
     5     5     6   ar
     6     6     7   ar
     7     7     8   ar
     8     8     9   ar
     9     9    10   ar
    10    10    11   ar
    11    11    12   ar
    12    12    13   ar
    13    13    14   ar
    14    14    15   ar
    15    15    16   ar
    16     2    17    1
    17    17    18   ar
    18    18    19   ar
    19    19    20   ar
    20    20    21   ar
    21    21    22   ar
    22     5     1   ar
    23    16     7   ar
    24    22    17   ar
    25     8     4   ar
    26    16    11   ar
    27     1    23    1
    28     3    24    1
    29     9    25    1
    30    10    26    1
    31    12    27    1
    32    13    28    1
    33    14    29    1
    34    18    30    1
    35    19    31    1
    36    20    32    1
    37    21    33    1
    38    22    34    1
