@<TRIPOS>MOLECULE
*****
 42 48 0 0 0
SMALL
GASTEIGER

@<TRIPOS>ATOM
      1 C           2.6206   -1.5408   -0.4662 C.ar    1  UNL1       -0.0285
      2 C           3.2097   -0.2983   -0.2744 C.ar    1  UNL1        0.0511
      3 N           2.1546    0.5855   -0.1311 N.ar    1  UNL1       -0.3540
      4 C           0.9425   -0.0557   -0.2258 C.ar    1  UNL1        0.0476
      5 C          -0.3598    0.4400   -0.1420 C.ar    1  UNL1       -0.0280
      6 C          -1.4595   -0.4294   -0.2730 C.ar    1  UNL1        0.0100
      7 C          -1.1757   -1.7787   -0.4856 C.ar    1  UNL1        0.0482
      8 C           0.1261   -2.2732   -0.5692 C.ar    1  UNL1       -0.0286
      9 C           1.2080   -1.3982   -0.4373 C.ar    1  UNL1        0.0022
     10 N          -2.3717   -2.4366   -0.5830 N.ar    1  UNL1       -0.3541
     11 C          -3.4268   -1.5694   -0.4422 C.ar    1  UNL1        0.0481
     12 C          -4.7954   -1.8481   -0.4794 C.ar    1  UNL1       -0.0372
     13 C          -5.6821   -0.7866   -0.3090 C.ar    1  UNL1       -0.0521
     14 C          -5.2280    0.5188   -0.1067 C.ar    1  UNL1       -0.0172
     15 C          -6.1493    1.5651    0.0614 C.ar    1  UNL1       -0.0540
     16 C          -5.7185    2.8756    0.2646 C.ar    1  UNL1       -0.0612
     17 C          -4.3588    3.1588    0.3026 C.ar    1  UNL1       -0.0611
     18 C          -3.4252    2.1326    0.1375 C.ar    1  UNL1       -0.0534
     19 C          -3.8337    0.7962   -0.0699 C.ar    1  UNL1       -0.0081
     20 C          -2.9020   -0.2873   -0.2439 C.ar    1  UNL1        0.0152
     21 C           4.6174    0.1109   -0.2170 C.ar    1  UNL1        0.0445
     22 C           5.0558    1.4301   -0.0125 C.ar    1  UNL1        0.0389
     23 N           6.3440    1.9067    0.0561 N.ar    1  UNL1       -0.2603
     24 C           7.4012    1.0599   -0.0815 C.ar    1  UNL1        0.0557
     25 C           7.1338   -0.3055   -0.2940 C.ar    1  UNL1        0.1185
     26 N           8.0502   -1.2746   -0.4500 N.ar    1  UNL1       -0.1892
     27 S           7.2063   -2.6840   -0.6668 S.2     1  UNL1        0.1165
     28 N           5.6504   -2.1286   -0.5725 N.ar    1  UNL1       -0.1900
     29 C           5.7037   -0.7987   -0.3645 C.ar    1  UNL1        0.1119
     30 H           3.1441   -2.4761   -0.6152 H       1  UNL1        0.0645
     31 H           2.2375    1.5786    0.0241 H       1  UNL1        0.1659
     32 H          -0.5113    1.4990    0.0245 H       1  UNL1        0.0645
     33 H           0.3068   -3.3315   -0.7358 H       1  UNL1        0.0645
     34 H          -2.4660   -3.4293   -0.7380 H       1  UNL1        0.1659
     35 H          -5.1654   -2.8565   -0.6356 H       1  UNL1        0.0638
     36 H          -6.7497   -0.9969   -0.3369 H       1  UNL1        0.0624
     37 H          -7.2186    1.3663    0.0354 H       1  UNL1        0.0624
     38 H          -6.4455    3.6730    0.3929 H       1  UNL1        0.0618
     39 H          -4.0201    4.1793    0.4608 H       1  UNL1        0.0618
     40 H          -2.3774    2.3982    0.1741 H       1  UNL1        0.0624
     41 H           4.3304    2.2320    0.1165 H       1  UNL1        0.0837
     42 H           8.3975    1.4772   -0.0208 H       1  UNL1        0.0852
@<TRIPOS>BOND
     1     1     2   ar
     2     2     3   ar
     3     3     4   ar
     4     4     5   ar
     5     5     6   ar
     6     6     7   ar
     7     7     8   ar
     8     8     9   ar
     9     7    10   ar
    10    10    11   ar
    11    11    12   ar
    12    12    13   ar
    13    13    14   ar
    14    14    15   ar
    15    15    16   ar
    16    16    17   ar
    17    17    18   ar
    18    18    19   ar
    19    19    20   ar
    20     2    21    1
    21    21    22   ar
    22    22    23   ar
    23    23    24   ar
    24    24    25   ar
    25    25    26   ar
    26    26    27   ar
    27    27    28   ar
    28    28    29   ar
    29     9     1   ar
    30    20    11   ar
    31    29    21   ar
    32     9     4   ar
    33    19    14   ar
    34    29    25   ar
    35    20     6   ar
    36     1    30    1
    37     3    31    1
    38     5    32    1
    39     8    33    1
    40    10    34    1
    41    12    35    1
    42    13    36    1
    43    15    37    1
    44    16    38    1
    45    17    39    1
    46    18    40    1
    47    22    41    1
    48    24    42    1
