@<TRIPOS>MOLECULE
*****
 36 42 0 0 0
SMALL
GASTEIGER

@<TRIPOS>ATOM
      1 C           1.8434    1.2956    0.3309 C.ar    1  UNL1       -0.0285
      2 C           2.4156    0.0791   -0.0169 C.ar    1  UNL1        0.0511
      3 N           1.3489   -0.7741   -0.2375 N.ar    1  UNL1       -0.3540
      4 C           0.1472   -0.1372   -0.0410 C.ar    1  UNL1        0.0476
      5 C          -1.1586   -0.6052   -0.1504 C.ar    1  UNL1       -0.0289
      6 C          -2.2520    0.2501    0.1053 C.ar    1  UNL1        0.0010
      7 C          -1.9628    1.5708    0.4685 C.ar    1  UNL1        0.0212
      8 C          -0.6410    2.0266    0.5742 C.ar    1  UNL1       -0.0382
      9 C           0.4294    1.1677    0.3179 C.ar    1  UNL1        0.0013
     10 S          -3.3890    2.4984    0.7496 S.2     1  UNL1       -0.0881
     11 C          -4.4354    1.1804    0.3992 C.ar    1  UNL1        0.0227
     12 C          -5.8508    1.1806    0.4219 C.ar    1  UNL1       -0.0452
     13 C          -6.5767    0.0224    0.1111 C.ar    1  UNL1       -0.0324
     14 C          -5.8224   -1.1193   -0.2189 C.ar    1  UNL1        0.1005
     15 N          -6.3318   -2.3226   -0.5459 N.ar    1  UNL1       -0.1908
     16 S          -5.0317   -3.3304   -0.8473 S.2     1  UNL1        0.1165
     17 N          -3.7589   -2.2788   -0.5748 N.ar    1  UNL1       -0.1901
     18 C          -4.3679   -1.1474   -0.2500 C.ar    1  UNL1        0.1086
     19 C          -3.6685    0.0751    0.0792 C.ar    1  UNL1        0.0251
     20 C           3.8175   -0.3314   -0.1537 C.ar    1  UNL1        0.0445
     21 C           4.2381   -1.6212   -0.5195 C.ar    1  UNL1        0.0389
     22 N           5.5198   -2.0957   -0.6722 N.ar    1  UNL1       -0.2603
     23 C           6.5883   -1.2784   -0.4617 C.ar    1  UNL1        0.0557
     24 C           6.3391    0.0551   -0.0865 C.ar    1  UNL1        0.1185
     25 N           7.2680    0.9929    0.1597 N.ar    1  UNL1       -0.1892
     26 S           6.4429    2.3738    0.5574 S.2     1  UNL1        0.1165
     27 N           4.8799    1.8441    0.4349 N.ar    1  UNL1       -0.1900
     28 C           4.9159    0.5470    0.0732 C.ar    1  UNL1        0.1119
     29 H           2.3800    2.2034    0.5751 H       1  UNL1        0.0645
     30 H           1.4171   -1.7437   -0.5086 H       1  UNL1        0.1659
     31 H          -1.3341   -1.6392   -0.4355 H       1  UNL1        0.0645
     32 H          -0.4436    3.0576    0.8582 H       1  UNL1        0.0635
     33 H          -6.3868    2.0914    0.6842 H       1  UNL1        0.0629
     34 H          -7.6602    0.0030    0.1230 H       1  UNL1        0.0640
     35 H           3.5024   -2.3975   -0.7239 H       1  UNL1        0.0837
     36 H           7.5788   -1.6932   -0.5931 H       1  UNL1        0.0852
@<TRIPOS>BOND
     1     1     2   ar
     2     2     3   ar
     3     3     4   ar
     4     4     5   ar
     5     5     6   ar
     6     6     7   ar
     7     7     8   ar
     8     8     9   ar
     9     7    10   ar
    10    10    11   ar
    11    11    12   ar
    12    12    13   ar
    13    13    14   ar
    14    14    15   ar
    15    15    16   ar
    16    16    17   ar
    17    17    18   ar
    18    18    19   ar
    19     2    20    1
    20    20    21   ar
    21    21    22   ar
    22    22    23   ar
    23    23    24   ar
    24    24    25   ar
    25    25    26   ar
    26    26    27   ar
    27    27    28   ar
    28     9     1   ar
    29    19    11   ar
    30    28    20   ar
    31     9     4   ar
    32    18    14   ar
    33    28    24   ar
    34    19     6   ar
    35     1    29    1
    36     3    30    1
    37     5    31    1
    38     8    32    1
    39    12    33    1
    40    13    34    1
    41    21    35    1
    42    23    36    1
