@<TRIPOS>MOLECULE
*****
 34 39 0 0 0
SMALL
GASTEIGER

@<TRIPOS>ATOM
      1 C          -0.5972   -1.4294    0.5550 C.3     1  UNL1        0.0028
      2 C          -1.7414   -0.4295    0.1169 C.2     1  UNL1       -0.0237
      3 C          -1.2094    0.7390   -0.3515 C.2     1  UNL1       -0.0334
      4 C           0.1804    0.5936   -0.2592 C.ar    1  UNL1        0.0456
      5 N           1.2268    1.3903   -0.5623 N.ar    1  UNL1       -0.3515
      6 C           2.3479    0.6505   -0.2314 C.ar    1  UNL1        0.0913
      7 C           1.9679   -0.5775    0.2648 C.ar    1  UNL1        0.0710
      8 N           3.0918   -1.2923    0.5855 N.ar    1  UNL1       -0.3514
      9 C           4.1937   -0.5161    0.2923 C.ar    1  UNL1        0.0675
     10 C           5.5605   -0.7597    0.4251 C.ar    1  UNL1       -0.0348
     11 C           6.4053    0.2756    0.0193 C.ar    1  UNL1       -0.0416
     12 C           5.8608    1.4567   -0.4796 C.ar    1  UNL1        0.0285
     13 N           4.5417    1.7207   -0.6196 N.ar    1  UNL1       -0.2514
     14 C           3.7538    0.7028   -0.2196 C.ar    1  UNL1        0.1123
     15 C           0.5737   -0.6086    0.2447 C.ar    1  UNL1        0.0056
     16 C          -3.1416   -0.6696    0.1832 C.ar    1  UNL1        0.0585
     17 S          -3.8132   -2.1655    0.7850 S.2     1  UNL1       -0.0926
     18 C          -5.4588   -1.6677    0.5412 C.ar    1  UNL1       -0.0129
     19 C          -5.4335   -0.4216    0.0274 C.ar    1  UNL1        0.0278
     20 C          -6.3204    0.5750   -0.4047 C.ar    1  UNL1       -0.0156
     21 C          -5.4991    1.6290   -0.8207 C.ar    1  UNL1        0.0932
     22 O          -4.1461    1.3811   -0.6869 O.2     1  UNL1       -0.4618
     23 C          -4.1841    0.1199   -0.1670 C.ar    1  UNL1        0.1492
     24 H          -0.6332   -2.3432   -0.0450 H       1  UNL1        0.0363
     25 H          -0.6721   -1.6574    1.6221 H       1  UNL1        0.0363
     26 H          -1.7213    1.6132   -0.7231 H       1  UNL1        0.0641
     27 H           1.2598    2.3268   -0.9468 H       1  UNL1        0.1660
     28 H           3.0768   -2.2273    0.9698 H       1  UNL1        0.1660
     29 H           5.9473   -1.6924    0.8180 H       1  UNL1        0.0639
     30 H           7.4824    0.1635    0.0910 H       1  UNL1        0.0633
     31 H           6.5158    2.2649   -0.7965 H       1  UNL1        0.0830
     32 H          -6.2888   -2.3136    0.7886 H       1  UNL1        0.0701
     33 H          -7.4005    0.5635   -0.4251 H       1  UNL1        0.0655
     34 H          -5.7257    2.6053   -1.2291 H       1  UNL1        0.1030
@<TRIPOS>BOND
     1     1     2    1
     2     2     3    2
     3     3     4    1
     4     4     5   ar
     5     5     6   ar
     6     6     7   ar
     7     7     8   ar
     8     8     9   ar
     9     9    10   ar
    10    10    11   ar
    11    11    12   ar
    12    12    13   ar
    13    13    14   ar
    14     7    15   ar
    15     2    16    1
    16    16    17   ar
    17    17    18   ar
    18    18    19   ar
    19    19    20   ar
    20    20    21   ar
    21    21    22   ar
    22    22    23   ar
    23    15     1    1
    24    23    16   ar
    25    15     4   ar
    26    23    19   ar
    27    14     6   ar
    28    14     9   ar
    29     1    24    1
    30     1    25    1
    31     3    26    1
    32     5    27    1
    33     8    28    1
    34    10    29    1
    35    11    30    1
    36    12    31    1
    37    18    32    1
    38    20    33    1
    39    21    34    1
