@<TRIPOS>MOLECULE
*****
 38 43 0 0 0
SMALL
GASTEIGER

@<TRIPOS>ATOM
      1 C           2.5301   -1.3458   -0.8165 C.3     1  UNL1        0.0000
      2 C           3.3464   -0.1740   -0.2094 C.2     1  UNL1        0.0000
      3 C           2.5534    0.7864    0.3394 C.2     1  UNL1        0.0000
      4 C           1.2462    0.3306    0.1379 C.ar    1  UNL1        0.0000
      5 N           0.0202    0.8268    0.4501 N.ar    1  UNL1        0.0000
      6 C          -0.8845   -0.0963   -0.0189 C.ar    1  UNL1        0.0000
      7 C          -0.1825   -1.1418   -0.6106 C.ar    1  UNL1        0.0000
      8 SI         -1.4250   -2.3681   -1.2322 Si      1  UNL1        0.0000
      9 C          -2.8059   -1.1997   -0.5500 C.ar    1  UNL1        0.0000
     10 C          -4.2194   -1.5176   -0.6728 C.ar    1  UNL1        0.0000
     11 C          -5.1498   -0.6752   -0.1831 C.ar    1  UNL1        0.0000
     12 C          -4.7260    0.5536    0.4686 C.ar    1  UNL1        0.0000
     13 C          -5.5657    1.4658    0.9928 C.2     1  UNL1        0.0000
     14 SI         -4.6168    2.8908    1.7324 Si      1  UNL1        0.0000
     15 C          -3.0242    2.0442    1.2173 C.2     1  UNL1        0.0000
     16 C          -3.2732    0.8756    0.5922 C.ar    1  UNL1        0.0000
     17 C          -2.3068   -0.0716    0.0445 C.ar    1  UNL1        0.0000
     18 C           1.1596   -0.8745   -0.5128 C.ar    1  UNL1        0.0000
     19 C           4.8022   -0.1819   -0.2647 C.ar    1  UNL1        0.0000
     20 N           5.3858   -1.2284   -0.8530 N.ar    1  UNL1        0.0000
     21 C           6.7153   -1.1776   -0.8719 C.ar    1  UNL1        0.0000
     22 N           7.4707   -0.2043   -0.3704 N.ar    1  UNL1        0.0000
     23 C           6.7744    0.7816    0.1890 C.ar    1  UNL1        0.0000
     24 N           5.4492    0.8549    0.2751 N.ar    1  UNL1        0.0000
     25 H           2.7531   -2.2901   -0.3108 H       1  UNL1        0.0000
     26 H           2.6976   -1.4311   -1.8943 H       1  UNL1        0.0000
     27 H           2.8627    1.7000    0.8242 H       1  UNL1        0.0000
     28 H          -0.1822    1.6928    0.9270 H       1  UNL1        0.0000
     29 H          -1.4295   -3.6719   -0.5176 H       1  UNL1        0.0000
     30 H          -1.5066   -2.4812   -2.7125 H       1  UNL1        0.0000
     31 H          -4.5203   -2.4388   -1.1619 H       1  UNL1        0.0000
     32 H          -6.2082   -0.8958   -0.2656 H       1  UNL1        0.0000
     33 H          -6.6430    1.4298    1.0111 H       1  UNL1        0.0000
     34 H          -4.7566    2.9691    3.2065 H       1  UNL1        0.0000
     35 H          -4.8339    4.1638    1.0039 H       1  UNL1        0.0000
     36 H          -2.0790    2.5054    1.4343 H       1  UNL1        0.0000
     37 H           7.2318   -2.0083   -1.3408 H       1  UNL1        0.0000
     38 H           7.3403    1.6031    0.6149 H       1  UNL1        0.0000
@<TRIPOS>BOND
     1     1     2    1
     2     2     3    2
     3     3     4    1
     4     4     5   ar
     5     5     6   ar
     6     6     7   ar
     7     7     8    1
     8     8     9    1
     9     9    10   ar
    10    10    11   ar
    11    11    12   ar
    12    12    13    2
    13    13    14    1
    14    14    15    1
    15    15    16    2
    16    16    17   ar
    17     7    18   ar
    18     2    19    1
    19    19    20   ar
    20    20    21   ar
    21    21    22   ar
    22    22    23   ar
    23    23    24   ar
    24    18     1    1
    25    24    19   ar
    26    18     4   ar
    27     6    17    1
    28    17     9   ar
    29    16    12   ar
    30     1    25    1
    31     1    26    1
    32     3    27    1
    33     5    28    1
    34     8    29    1
    35     8    30    1
    36    10    31    1
    37    11    32    1
    38    13    33    1
    39    14    34    1
    40    14    35    1
    41    15    36    1
    42    21    37    1
    43    23    38    1
