@<TRIPOS>MOLECULE
*****
 40 45 0 0 0
SMALL
GASTEIGER

@<TRIPOS>ATOM
      1 C           2.1473   -0.7515   -0.1931 C.3     1  UNL1        0.0037
      2 C           3.1407    0.3483    0.2615 C.2     1  UNL1        0.0031
      3 C           2.5099    1.4983    0.6210 C.2     1  UNL1       -0.0311
      4 C           1.1518    1.2299    0.4327 C.ar    1  UNL1        0.0442
      5 N           0.0227    1.9372    0.6024 N.ar    1  UNL1       -0.3539
      6 C          -1.0522    1.1199    0.2412 C.ar    1  UNL1        0.0556
      7 C          -0.5325   -0.1304   -0.1612 C.ar    1  UNL1        0.0120
      8 C           0.8665   -0.0191   -0.0251 C.ar    1  UNL1       -0.0100
      9 C          -1.4335   -1.1468   -0.5801 C.ar    1  UNL1       -0.0078
     10 C          -0.9106   -2.3969   -0.9822 C.ar    1  UNL1       -0.0534
     11 C          -1.7532   -3.4224   -1.4002 C.ar    1  UNL1       -0.0611
     12 C          -3.1236   -3.2146   -1.4224 C.ar    1  UNL1       -0.0611
     13 C          -3.6521   -1.9809   -1.0265 C.ar    1  UNL1       -0.0534
     14 C          -2.8348   -0.9056   -0.5927 C.ar    1  UNL1       -0.0095
     15 C          -3.3409    0.3719   -0.1798 C.ar    1  UNL1       -0.0082
     16 C          -4.7174    0.7122   -0.1560 C.ar    1  UNL1       -0.0534
     17 C          -5.1746    1.9704    0.2535 C.ar    1  UNL1       -0.0611
     18 C          -4.2709    2.9422    0.6570 C.ar    1  UNL1       -0.0611
     19 C          -2.9090    2.6581    0.6518 C.ar    1  UNL1       -0.0520
     20 C          -2.4429    1.3888    0.2390 C.ar    1  UNL1        0.0066
     21 C           4.5748    0.0926    0.2713 C.ar    1  UNL1        0.1594
     22 N           5.3780    1.0812    0.6737 N.ar    1  UNL1       -0.2163
     23 C           6.6730    0.7785    0.6573 C.ar    1  UNL1        0.1200
     24 N           7.2018   -0.3845    0.2862 N.ar    1  UNL1       -0.2241
     25 C           6.3015   -1.2874   -0.0929 C.ar    1  UNL1        0.1200
     26 N           4.9824   -1.1153   -0.1241 N.ar    1  UNL1       -0.2163
     27 H           2.1985   -1.6275    0.4606 H       1  UNL1        0.0363
     28 H           2.3163   -1.0321   -1.2371 H       1  UNL1        0.0363
     29 H           2.9585    2.4149    0.9735 H       1  UNL1        0.0642
     30 H          -0.0511    2.8889    0.9310 H       1  UNL1        0.1659
     31 H           0.1591   -2.5829   -0.9732 H       1  UNL1        0.0624
     32 H          -1.3386   -4.3786   -1.7068 H       1  UNL1        0.0618
     33 H          -3.7899   -4.0095   -1.7474 H       1  UNL1        0.0618
     34 H          -4.7326   -1.8784   -1.0655 H       1  UNL1        0.0624
     35 H          -5.4735   -0.0058   -0.4602 H       1  UNL1        0.0624
     36 H          -6.2405    2.1839    0.2544 H       1  UNL1        0.0618
     37 H          -4.6248    3.9190    0.9750 H       1  UNL1        0.0618
     38 H          -2.2241    3.4365    0.9723 H       1  UNL1        0.0624
     39 H           7.3626    1.5525    0.9766 H       1  UNL1        0.1048
     40 H           6.6781   -2.2552   -0.4062 H       1  UNL1        0.1048
@<TRIPOS>BOND
     1     1     2    1
     2     2     3    2
     3     3     4    1
     4     4     5   ar
     5     5     6   ar
     6     6     7   ar
     7     7     8   ar
     8     7     9   ar
     9     9    10   ar
    10    10    11   ar
    11    11    12   ar
    12    12    13   ar
    13    13    14   ar
    14    14    15   ar
    15    15    16   ar
    16    16    17   ar
    17    17    18   ar
    18    18    19   ar
    19    19    20   ar
    20     2    21    1
    21    21    22   ar
    22    22    23   ar
    23    23    24   ar
    24    24    25   ar
    25    25    26   ar
    26     8     1    1
    27    14     9   ar
    28    20    15   ar
    29    26    21   ar
    30     8     4   ar
    31    20     6   ar
    32     1    27    1
    33     1    28    1
    34     3    29    1
    35     5    30    1
    36    10    31    1
    37    11    32    1
    38    12    33    1
    39    13    34    1
    40    16    35    1
    41    17    36    1
    42    18    37    1
    43    19    38    1
    44    23    39    1
    45    25    40    1
