@<TRIPOS>MOLECULE
*****
 43 49 0 0 0
SMALL
GASTEIGER

@<TRIPOS>ATOM
      1 C          -2.0396   -0.7962    1.0271 C.3     1  UNL1        0.0005
      2 C          -2.8115    0.2202    0.1127 C.2     1  UNL1       -0.0318
      3 C          -1.9466    0.9374   -0.6592 C.2     1  UNL1       -0.0340
      4 C          -0.6694    0.4742   -0.3257 C.ar    1  UNL1        0.0438
      5 N           0.5816    0.7923   -0.7462 N.ar    1  UNL1       -0.3541
      6 C           1.4123   -0.0233   -0.0316 C.ar    1  UNL1        0.0516
      7 C           0.6842   -0.8372    0.8218 C.ar    1  UNL1       -0.0137
      8 C           1.5286   -1.7546    1.6336 C.3     1  UNL1        0.0005
      9 C           2.8948   -1.3113    1.0815 C.ar    1  UNL1       -0.0333
     10 C           4.1218   -1.8221    1.4653 C.ar    1  UNL1       -0.0570
     11 C           5.2699   -1.3037    0.8602 C.ar    1  UNL1       -0.0537
     12 C           5.2055   -0.2844   -0.1205 C.ar    1  UNL1       -0.0172
     13 C           6.3816    0.2112   -0.7062 C.ar    1  UNL1       -0.0540
     14 C           6.3371    1.2154   -1.6741 C.ar    1  UNL1       -0.0612
     15 C           5.1139    1.7413   -2.0727 C.ar    1  UNL1       -0.0611
     16 C           3.9317    1.2639   -1.5042 C.ar    1  UNL1       -0.0534
     17 C           3.9533    0.2486   -0.5236 C.ar    1  UNL1       -0.0085
     18 C           2.8169   -0.2844    0.0946 C.ar    1  UNL1        0.0098
     19 C          -0.6481   -0.5106    0.6255 C.ar    1  UNL1       -0.0143
     20 C          -4.2815    0.3037    0.1640 C.ar    1  UNL1        0.0067
     21 C          -5.0578   -0.5148    1.0257 C.ar    1  UNL1       -0.0521
     22 C          -6.4707   -0.4747    1.1139 C.ar    1  UNL1       -0.0590
     23 C          -7.2578    0.3915    0.3464 C.ar    1  UNL1       -0.0335
     24 C          -6.5596    1.2425   -0.5397 C.ar    1  UNL1        0.1005
     25 N          -7.1366    2.1386   -1.3550 N.ar    1  UNL1       -0.1908
     26 S          -5.9079    2.8791   -2.1818 S.2     1  UNL1        0.1165
     27 N          -4.5934    2.1008   -1.5469 N.ar    1  UNL1       -0.1902
     28 C          -5.0431    1.2091   -0.6437 C.ar    1  UNL1        0.1072
     29 H          -2.3199   -1.8277    0.7927 H       1  UNL1        0.0362
     30 H          -2.2035   -0.5756    2.0862 H       1  UNL1        0.0362
     31 H          -2.1615    1.7062   -1.3840 H       1  UNL1        0.0641
     32 H           0.8360    1.4832   -1.4379 H       1  UNL1        0.1659
     33 H           1.4520   -1.5456    2.7035 H       1  UNL1        0.0362
     34 H           1.3348   -2.8049    1.4024 H       1  UNL1        0.0362
     35 H           4.1969   -2.6032    2.2145 H       1  UNL1        0.0621
     36 H           6.2372   -1.7038    1.1602 H       1  UNL1        0.0624
     37 H           7.3508   -0.1849   -0.4102 H       1  UNL1        0.0624
     38 H           7.2590    1.5853   -2.1151 H       1  UNL1        0.0618
     39 H           5.0774    2.5234   -2.8264 H       1  UNL1        0.0618
     40 H           2.9941    1.6942   -1.8361 H       1  UNL1        0.0624
     41 H          -4.5573   -1.2331    1.6757 H       1  UNL1        0.0624
     42 H          -6.9675   -1.1497    1.8116 H       1  UNL1        0.0618
     43 H          -8.3382    0.4142    0.4216 H       1  UNL1        0.0640
@<TRIPOS>BOND
     1     1     2    1
     2     2     3    2
     3     3     4    1
     4     4     5   ar
     5     5     6   ar
     6     6     7   ar
     7     7     8    1
     8     8     9    1
     9     9    10   ar
    10    10    11   ar
    11    11    12   ar
    12    12    13   ar
    13    13    14   ar
    14    14    15   ar
    15    15    16   ar
    16    16    17   ar
    17    17    18   ar
    18     7    19   ar
    19     2    20    1
    20    20    21   ar
    21    21    22   ar
    22    22    23   ar
    23    23    24   ar
    24    24    25   ar
    25    25    26   ar
    26    26    27   ar
    27    27    28   ar
    28    19     1    1
    29    28    20   ar
    30    19     4   ar
    31    28    24   ar
    32     6    18    1
    33    18     9   ar
    34    17    12   ar
    35     1    29    1
    36     1    30    1
    37     3    31    1
    38     5    32    1
    39     8    33    1
    40     8    34    1
    41    10    35    1
    42    11    36    1
    43    13    37    1
    44    14    38    1
    45    15    39    1
    46    16    40    1
    47    21    41    1
    48    22    42    1
    49    23    43    1
