@<TRIPOS>MOLECULE
*****
 38 43 0 0 0
SMALL
GASTEIGER

@<TRIPOS>ATOM
      1 SI          3.1957    1.8944   -0.2259 Si      1  UNL1        0.0000
      2 C           3.7761    0.0427   -0.0134 C.2     1  UNL1        0.0000
      3 C           2.7159   -0.8024    0.0773 C.2     1  UNL1        0.0000
      4 C           1.5062   -0.0809   -0.0102 C.ar    1  UNL1        0.0000
      5 N           0.2294   -0.5431    0.0362 N.ar    1  UNL1        0.0000
      6 C          -0.6604    0.5261   -0.0894 C.ar    1  UNL1        0.0000
      7 C           0.1411    1.6829   -0.2164 C.ar    1  UNL1        0.0000
      8 N          -0.3428    2.9312   -0.3598 N.ar    1  UNL1        0.0000
      9 C          -1.6840    3.0053   -0.3743 C.ar    1  UNL1        0.0000
     10 C          -2.5760    1.9389   -0.2579 C.ar    1  UNL1        0.0000
     11 C          -3.9476    2.1955   -0.2930 C.ar    1  UNL1        0.0000
     12 C          -4.8676    1.1601   -0.1802 C.ar    1  UNL1        0.0000
     13 C          -4.4487   -0.1633   -0.0292 C.ar    1  UNL1        0.0000
     14 C          -5.4305   -1.1634    0.0791 C.ar    1  UNL1        0.0000
     15 C          -5.0837   -2.5002    0.2310 C.ar    1  UNL1        0.0000
     16 C          -3.7461   -2.8491    0.2758 C.ar    1  UNL1        0.0000
     17 C          -2.7605   -1.8599    0.1688 C.ar    1  UNL1        0.0000
     18 C          -3.0627   -0.4815    0.0127 C.ar    1  UNL1        0.0000
     19 C          -2.0992    0.6067   -0.1054 C.ar    1  UNL1        0.0000
     20 C           1.4572    1.2750   -0.1641 C.ar    1  UNL1        0.0000
     21 C           5.1262   -0.3913    0.0421 C.ar    1  UNL1        0.0000
     22 N           5.4999   -1.6542    0.1863 N.ar    1  UNL1        0.0000
     23 C           6.8737   -1.7736    0.2064 C.ar    1  UNL1        0.0000
     24 C           7.5697   -0.5967    0.0771 C.ar    1  UNL1        0.0000
     25 S           6.4727    0.7031   -0.0748 S.2     1  UNL1        0.0000
     26 H           3.6379    2.4184   -1.5459 H       1  UNL1        0.0000
     27 H           3.6260    2.7007    0.9476 H       1  UNL1        0.0000
     28 H           2.7870   -1.8767    0.1992 H       1  UNL1        0.0000
     29 H          -0.0141   -1.5124    0.1455 H       1  UNL1        0.0000
     30 H          -2.0538    4.0226   -0.4908 H       1  UNL1        0.0000
     31 H          -4.3216    3.2112   -0.4092 H       1  UNL1        0.0000
     32 H          -5.9279    1.4046   -0.2125 H       1  UNL1        0.0000
     33 H          -6.4874   -0.9048    0.0454 H       1  UNL1        0.0000
     34 H          -5.8547   -3.2610    0.3132 H       1  UNL1        0.0000
     35 H          -3.4592   -3.8910    0.3941 H       1  UNL1        0.0000
     36 H          -1.7435   -2.2149    0.2125 H       1  UNL1        0.0000
     37 H           7.3183   -2.7547    0.3192 H       1  UNL1        0.0000
     38 H           8.6390   -0.4443    0.0651 H       1  UNL1        0.0000
@<TRIPOS>BOND
     1     1     2    1
     2     2     3    2
     3     3     4    1
     4     4     5   ar
     5     5     6   ar
     6     6     7   ar
     7     7     8   ar
     8     8     9   ar
     9     9    10   ar
    10    10    11   ar
    11    11    12   ar
    12    12    13   ar
    13    13    14   ar
    14    14    15   ar
    15    15    16   ar
    16    16    17   ar
    17    17    18   ar
    18    18    19   ar
    19     7    20   ar
    20     2    21    1
    21    21    22   ar
    22    22    23   ar
    23    23    24   ar
    24    24    25   ar
    25    20     1    1
    26    25    21   ar
    27    20     4   ar
    28    19     6   ar
    29    19    10   ar
    30    18    13   ar
    31     1    26    1
    32     1    27    1
    33     3    28    1
    34     5    29    1
    35     9    30    1
    36    11    31    1
    37    12    32    1
    38    14    33    1
    39    15    34    1
    40    16    35    1
    41    17    36    1
    42    23    37    1
    43    24    38    1
