@<TRIPOS>MOLECULE
*****
 36 40 0 0 0
SMALL
GASTEIGER

@<TRIPOS>ATOM
      1 SI         -0.8110    1.5456    1.1622 Si      1  UNL1        0.0000
      2 C           0.5944    0.6799    0.2038 C.2     1  UNL1        0.0000
      3 C           0.0974    0.0074   -0.8559 C.2     1  UNL1        0.0000
      4 C          -1.3498    0.0757   -1.0210 C.2     1  UNL1        0.0000
      5 C          -2.0026    0.8088   -0.0971 C.2     1  UNL1        0.0000
      6 C          -3.3937    1.0111   -0.0640 C.ar    1  UNL1        0.0000
      7 S          -4.1644    2.5711   -0.0934 S.2     1  UNL1        0.0000
      8 C          -5.7702    1.9074   -0.0577 C.ar    1  UNL1        0.0000
      9 C          -5.6537    0.5654   -0.0200 C.ar    1  UNL1        0.0000
     10 C          -6.4440   -0.6083    0.0294 C.ar    1  UNL1        0.0000
     11 C          -5.5547   -1.7039    0.0579 C.ar    1  UNL1        0.0000
     12 N          -4.2252   -1.2874    0.0289 N.ar    1  UNL1        0.0000
     13 C          -4.3680    0.0713   -0.0225 C.ar    1  UNL1        0.0000
     14 C           1.9550    0.7856    0.5669 C.ar    1  UNL1        0.0000
     15 C           2.6959    1.7388    1.2388 C.ar    1  UNL1        0.0000
     16 C           4.0339    1.2789    1.3163 C.ar    1  UNL1        0.0000
     17 C           4.0984    0.0445    0.6980 C.ar    1  UNL1        0.0000
     18 N           2.8255   -0.2355    0.2518 N.ar    1  UNL1        0.0000
     19 C           5.2093   -0.8473    0.5062 C.ar    1  UNL1        0.0000
     20 C           5.2375   -2.0784   -0.1283 C.ar    1  UNL1        0.0000
     21 N           6.4595   -2.7253   -0.1645 N.ar    1  UNL1        0.0000
     22 C           7.3535   -1.9792    0.4434 C.ar    1  UNL1        0.0000
     23 S           6.7932   -0.4922    1.0801 S.2     1  UNL1        0.0000
     24 H          -0.9903    0.9672    2.5203 H       1  UNL1        0.0000
     25 H          -0.7054    3.0270    1.0887 H       1  UNL1        0.0000
     26 H           0.6888   -0.5348   -1.5831 H       1  UNL1        0.0000
     27 H          -1.8290   -0.4227   -1.8561 H       1  UNL1        0.0000
     28 H          -6.6459    2.5397   -0.0639 H       1  UNL1        0.0000
     29 H          -7.5235   -0.6789    0.0473 H       1  UNL1        0.0000
     30 H          -5.7698   -2.7640    0.1005 H       1  UNL1        0.0000
     31 H          -3.3630   -1.8181    0.0470 H       1  UNL1        0.0000
     32 H           2.3261    2.6787    1.6291 H       1  UNL1        0.0000
     33 H           4.8591    1.8043    1.7802 H       1  UNL1        0.0000
     34 H           2.5585   -1.0841   -0.2247 H       1  UNL1        0.0000
     35 H           4.3900   -2.5668   -0.5916 H       1  UNL1        0.0000
     36 H           8.3881   -2.2813    0.5401 H       1  UNL1        0.0000
@<TRIPOS>BOND
     1     1     2    1
     2     2     3    2
     3     3     4    1
     4     4     5    2
     5     5     6    1
     6     6     7   ar
     7     7     8   ar
     8     8     9   ar
     9     9    10   ar
    10    10    11   ar
    11    11    12   ar
    12    12    13   ar
    13     2    14    1
    14    14    15   ar
    15    15    16   ar
    16    16    17   ar
    17    17    18   ar
    18    17    19    1
    19    19    20   ar
    20    20    21   ar
    21    21    22   ar
    22    22    23   ar
    23     5     1    1
    24    13     6   ar
    25    18    14   ar
    26    23    19   ar
    27    13     9   ar
    28     1    24    1
    29     1    25    1
    30     3    26    1
    31     4    27    1
    32     8    28    1
    33    10    29    1
    34    11    30    1
    35    12    31    1
    36    15    32    1
    37    16    33    1
    38    18    34    1
    39    20    35    1
    40    22    36    1
