@<TRIPOS>MOLECULE
*****
 32 36 0 0 0
SMALL
GASTEIGER

@<TRIPOS>ATOM
      1 C          -0.8088    0.3485   -1.1937 C.3     1  UNL1        0.0009
      2 C          -1.8460    0.0547   -0.0573 C.2     1  UNL1       -0.0324
      3 C          -1.2257   -0.2767    1.1102 C.2     1  UNL1       -0.0340
      4 C           0.1425   -0.2235    0.8289 C.ar    1  UNL1        0.0441
      5 N           1.2619   -0.4418    1.5522 N.ar    1  UNL1       -0.3534
      6 C           2.3060   -0.2226    0.6869 C.ar    1  UNL1        0.0646
      7 C           1.8488    0.1325   -0.5771 C.ar    1  UNL1        0.0229
      8 C           2.8026    0.3878   -1.5681 C.ar    1  UNL1        0.0377
      9 N           4.1467    0.3096   -1.3695 N.ar    1  UNL1       -0.2537
     10 C           4.6357   -0.0344   -0.1482 C.ar    1  UNL1        0.0800
     11 C           6.0035   -0.1620    0.2288 C.ar    1  UNL1       -0.0286
     12 C           6.1505   -0.5284    1.5538 C.ar    1  UNL1       -0.0216
     13 S           4.6329   -0.7174    2.3397 S.2     1  UNL1       -0.0930
     14 C           3.8188   -0.3142    0.9234 C.ar    1  UNL1        0.0614
     15 C           0.4539    0.1238   -0.4560 C.ar    1  UNL1       -0.0092
     16 C          -3.2956    0.1460   -0.2976 C.ar    1  UNL1       -0.0034
     17 C          -4.2386   -0.1119    0.7047 C.ar    1  UNL1       -0.0514
     18 C          -5.6047   -0.0144    0.4362 C.ar    1  UNL1       -0.0430
     19 C          -6.0010    0.3420   -0.8395 C.ar    1  UNL1        0.0276
     20 N          -5.1368    0.6008   -1.8397 N.ar    1  UNL1       -0.2627
     21 C          -3.8160    0.4968   -1.5448 C.ar    1  UNL1        0.0350
     22 H          -0.8900    1.3818   -1.5443 H       1  UNL1        0.0362
     23 H          -0.9205   -0.3577   -2.0219 H       1  UNL1        0.0362
     24 H          -1.6668   -0.5301    2.0612 H       1  UNL1        0.0641
     25 H           1.3356   -0.7102    2.5251 H       1  UNL1        0.1659
     26 H           2.5059    0.6693   -2.5742 H       1  UNL1        0.0836
     27 H           6.8330    0.0081   -0.4443 H       1  UNL1        0.0644
     28 H           7.0700   -0.6942    2.0983 H       1  UNL1        0.0694
     29 H          -3.9328   -0.3921    1.7081 H       1  UNL1        0.0624
     30 H          -6.3401   -0.2128    1.2078 H       1  UNL1        0.0633
     31 H          -7.0522    0.4311   -1.0974 H       1  UNL1        0.0829
     32 H          -3.1728    0.7175   -2.3918 H       1  UNL1        0.0835
@<TRIPOS>BOND
     1     1     2    1
     2     2     3    2
     3     3     4    1
     4     4     5   ar
     5     5     6   ar
     6     6     7   ar
     7     7     8   ar
     8     8     9   ar
     9     9    10   ar
    10    10    11   ar
    11    11    12   ar
    12    12    13   ar
    13    13    14   ar
    14     7    15   ar
    15     2    16    1
    16    16    17   ar
    17    17    18   ar
    18    18    19   ar
    19    19    20   ar
    20    20    21   ar
    21    15     1    1
    22    21    16   ar
    23    15     4   ar
    24    14     6   ar
    25    14    10   ar
    26     1    22    1
    27     1    23    1
    28     3    24    1
    29     5    25    1
    30     8    26    1
    31    11    27    1
    32    12    28    1
    33    17    29    1
    34    18    30    1
    35    19    31    1
    36    21    32    1
