@<TRIPOS>MOLECULE
*****
 35 39 0 0 0
SMALL
GASTEIGER

@<TRIPOS>ATOM
      1 C          -1.4286    0.5061   -0.8608 C.3     1  UNL1        0.0000
      2 C          -2.1564   -0.3686    0.2064 C.2     1  UNL1        0.0000
      3 C          -1.2814   -0.9336    1.0839 C.2     1  UNL1        0.0000
      4 C          -0.0202   -0.4926    0.6711 C.ar    1  UNL1        0.0000
      5 N           1.2369   -0.6909    1.1122 N.ar    1  UNL1        0.0000
      6 C           2.0890    0.0248    0.2751 C.ar    1  UNL1        0.0000
      7 C           3.4757    0.1748    0.2688 C.ar    1  UNL1        0.0000
      8 SI          4.7345   -0.5456    1.4078 Si      1  UNL1        0.0000
      9 C           6.0592    0.3403    0.4094 C.2     1  UNL1        0.0000
     10 C           5.5535    1.0536   -0.6146 C.2     1  UNL1        0.0000
     11 C           4.0852    0.9800   -0.7218 C.ar    1  UNL1        0.0000
     12 C           3.3247    1.6228   -1.6873 C.ar    1  UNL1        0.0000
     13 C           1.9295    1.4749   -1.6851 C.ar    1  UNL1        0.0000
     14 C           1.2999    0.6756   -0.7052 C.ar    1  UNL1        0.0000
     15 C          -0.0256    0.3229   -0.4195 C.ar    1  UNL1        0.0000
     16 C          -3.6156   -0.4888    0.1628 C.ar    1  UNL1        0.0000
     17 C          -4.3350   -1.2500    1.0810 C.ar    1  UNL1        0.0000
     18 C          -5.7236   -1.3134    0.9713 C.ar    1  UNL1        0.0000
     19 C          -6.3587   -0.6183   -0.0483 C.ar    1  UNL1        0.0000
     20 C          -5.5740    0.1146   -0.9196 C.ar    1  UNL1        0.0000
     21 N          -4.2276    0.1928   -0.8356 N.ar    1  UNL1        0.0000
     22 H          -1.7376    1.5536   -0.7935 H       1  UNL1        0.0000
     23 H          -1.5868    0.1146   -1.8703 H       1  UNL1        0.0000
     24 H          -1.4897   -1.5813    1.9203 H       1  UNL1        0.0000
     25 H           1.5212   -1.2523    1.9022 H       1  UNL1        0.0000
     26 H           4.6343   -0.0339    2.7979 H       1  UNL1        0.0000
     27 H           4.8428   -2.0232    1.3092 H       1  UNL1        0.0000
     28 H           7.1017    0.2523    0.6731 H       1  UNL1        0.0000
     29 H           6.1421    1.6360   -1.3104 H       1  UNL1        0.0000
     30 H           3.7968    2.2399   -2.4458 H       1  UNL1        0.0000
     31 H           1.3310    1.9771   -2.4400 H       1  UNL1        0.0000
     32 H          -3.8406   -1.7933    1.8777 H       1  UNL1        0.0000
     33 H          -6.3018   -1.9018    1.6779 H       1  UNL1        0.0000
     34 H          -7.4363   -0.6465   -0.1618 H       1  UNL1        0.0000
     35 H          -6.0188    0.6773   -1.7353 H       1  UNL1        0.0000
@<TRIPOS>BOND
     1     1     2    1
     2     2     3    2
     3     3     4    1
     4     4     5   ar
     5     5     6   ar
     6     6     7   ar
     7     7     8    1
     8     8     9    1
     9     9    10    2
    10    10    11    1
    11    11    12   ar
    12    12    13   ar
    13    13    14   ar
    14    14    15   ar
    15     2    16    1
    16    16    17   ar
    17    17    18   ar
    18    18    19   ar
    19    19    20   ar
    20    20    21   ar
    21    15     1    1
    22    21    16   ar
    23    15     4   ar
    24    14     6   ar
    25    11     7   ar
    26     1    22    1
    27     1    23    1
    28     3    24    1
    29     5    25    1
    30     8    26    1
    31     8    27    1
    32     9    28    1
    33    10    29    1
    34    12    30    1
    35    13    31    1
    36    17    32    1
    37    18    33    1
    38    19    34    1
    39    20    35    1
