@<TRIPOS>MOLECULE
*****
 36 41 0 0 0
SMALL
GASTEIGER

@<TRIPOS>ATOM
      1 C          -0.2964    0.3323    1.1815 C.3     1  UNL1        0.0000
      2 C          -1.2957   -0.1183    0.0617 C.2     1  UNL1        0.0000
      3 C          -0.6540   -0.5918   -1.0447 C.2     1  UNL1        0.0000
      4 C           0.7106   -0.4734   -0.7533 C.ar    1  UNL1        0.0000
      5 N           1.8485   -0.7618   -1.4296 N.ar    1  UNL1        0.0000
      6 C           2.8799   -0.4084   -0.5737 C.ar    1  UNL1        0.0000
      7 C           4.2568   -0.3507   -0.4205 C.ar    1  UNL1        0.0000
      8 SI          5.8772   -0.6902   -1.2161 Si      1  UNL1        0.0000
      9 C           6.7227   -0.0290    0.3798 C.2     1  UNL1        0.0000
     10 C           5.8161    0.3603    1.3033 C.2     1  UNL1        0.0000
     11 C           4.4793    0.1746    0.8425 C.ar    1  UNL1        0.0000
     12 O           3.2977    0.4459    1.4816 O.2     1  UNL1        0.0000
     13 C           2.3347    0.0796    0.5889 C.ar    1  UNL1        0.0000
     14 C           0.9559    0.0430    0.4867 C.ar    1  UNL1        0.0000
     15 C          -2.7312   -0.0415    0.2754 C.ar    1  UNL1        0.0000
     16 C          -3.3849   -0.3316    1.5021 C.ar    1  UNL1        0.0000
     17 C          -4.8100   -0.2488    1.7095 C.ar    1  UNL1        0.0000
     18 C          -5.7374    0.1447    0.7193 C.ar    1  UNL1        0.0000
     19 C          -5.0761    0.4428   -0.4633 C.ar    1  UNL1        0.0000
     20 C          -5.6446    0.8847   -1.6272 C.ar    1  UNL1        0.0000
     21 O          -4.6653    1.1018   -2.5565 O.2     1  UNL1        0.0000
     22 C          -3.4661    0.7937   -1.9722 C.ar    1  UNL1        0.0000
     23 C          -3.6665    0.3602   -0.6853 C.ar    1  UNL1        0.0000
     24 H          -0.4107   -0.2711    2.0861 H       1  UNL1        0.0000
     25 H          -0.4153    1.3967    1.4031 H       1  UNL1        0.0000
     26 H          -1.0877   -0.9960   -1.9464 H       1  UNL1        0.0000
     27 H           1.9706   -1.1508   -2.3557 H       1  UNL1        0.0000
     28 H           6.1859   -2.1280   -1.4149 H       1  UNL1        0.0000
     29 H           6.1972    0.1777   -2.3765 H       1  UNL1        0.0000
     30 H           7.7975   -0.0008    0.4593 H       1  UNL1        0.0000
     31 H           6.0435    0.7662    2.2793 H       1  UNL1        0.0000
     32 H          -2.7848   -0.6591    2.3522 H       1  UNL1        0.0000
     33 H          -5.1922   -0.5082    2.6981 H       1  UNL1        0.0000
     34 H          -6.8027    0.2084    0.8871 H       1  UNL1        0.0000
     35 H          -6.6521    1.1005   -1.9526 H       1  UNL1        0.0000
     36 H          -2.6005    0.9466   -2.6002 H       1  UNL1        0.0000
@<TRIPOS>BOND
     1     1     2    1
     2     2     3    2
     3     3     4    1
     4     4     5   ar
     5     5     6   ar
     6     6     7   ar
     7     7     8    1
     8     8     9    1
     9     9    10    2
    10    10    11    1
    11    11    12   ar
    12    12    13   ar
    13    13    14   ar
    14     2    15    1
    15    15    16   ar
    16    16    17   ar
    17    17    18   ar
    18    18    19   ar
    19    19    20   ar
    20    20    21   ar
    21    21    22   ar
    22    22    23   ar
    23    14     1    1
    24    23    15   ar
    25    14     4   ar
    26    23    19   ar
    27    13     6   ar
    28    11     7   ar
    29     1    24    1
    30     1    25    1
    31     3    26    1
    32     5    27    1
    33     8    28    1
    34     8    29    1
    35     9    30    1
    36    10    31    1
    37    16    32    1
    38    17    33    1
    39    18    34    1
    40    20    35    1
    41    22    36    1
