@<TRIPOS>MOLECULE
*****
 32 36 0 0 0
SMALL
GASTEIGER

@<TRIPOS>ATOM
      1 C          -0.2849    1.3884   -0.1629 C.3     1  UNL1        0.0013
      2 C           0.8939    0.4146    0.1857 C.2     1  UNL1       -0.0253
      3 C           0.4354   -0.8409    0.4558 C.2     1  UNL1       -0.0335
      4 C          -0.9506   -0.7720    0.2895 C.ar    1  UNL1        0.0441
      5 N          -1.9583   -1.6577    0.4072 N.ar    1  UNL1       -0.3544
      6 C          -3.1403   -0.9833    0.1099 C.ar    1  UNL1        0.0472
      7 C          -4.4586   -1.4548    0.0858 C.ar    1  UNL1       -0.0378
      8 C          -5.4684   -0.5463   -0.2482 C.ar    1  UNL1       -0.0598
      9 C          -5.1742    0.7833   -0.5462 C.ar    1  UNL1       -0.0611
     10 C          -3.8546    1.2494   -0.5198 C.ar    1  UNL1       -0.0523
     11 C          -2.8192    0.3581   -0.1886 C.ar    1  UNL1        0.0037
     12 C          -1.4273    0.4542   -0.0618 C.ar    1  UNL1       -0.0106
     13 C           2.2698    0.7338    0.2728 C.ar    1  UNL1        0.0396
     14 S           2.8722    2.1283    1.1176 S.2     1  UNL1       -0.0943
     15 C           4.5352    1.7656    0.7644 C.ar    1  UNL1       -0.0145
     16 C           4.5550    0.6486    0.0105 C.ar    1  UNL1        0.0073
     17 C           5.4584   -0.2124   -0.6582 C.ar    1  UNL1       -0.0361
     18 C           4.6860   -1.2094   -1.2913 C.ar    1  UNL1        0.0028
     19 N           3.3237   -1.0285   -1.0598 N.ar    1  UNL1       -0.3598
     20 C           3.3284    0.0868   -0.2689 C.ar    1  UNL1        0.0611
     21 H          -0.3551    2.1983    0.5687 H       1  UNL1        0.0363
     22 H          -0.1684    1.7868   -1.1749 H       1  UNL1        0.0363
     23 H           1.0044   -1.7066    0.7602 H       1  UNL1        0.0641
     24 H          -1.8931   -2.6326    0.6649 H       1  UNL1        0.1659
     25 H          -4.6963   -2.4876    0.3181 H       1  UNL1        0.0638
     26 H          -6.5020   -0.8842   -0.2745 H       1  UNL1        0.0618
     27 H          -5.9783    1.4691   -0.8017 H       1  UNL1        0.0618
     28 H          -3.6362    2.2871   -0.7523 H       1  UNL1        0.0624
     29 H           5.3401    2.3940    1.1165 H       1  UNL1        0.0700
     30 H           6.5368   -0.1362   -0.7002 H       1  UNL1        0.0639
     31 H           5.0059   -2.0420   -1.9047 H       1  UNL1        0.0807
     32 H           2.5208   -1.5518   -1.3870 H       1  UNL1        0.1654
@<TRIPOS>BOND
     1     1     2    1
     2     2     3    2
     3     3     4    1
     4     4     5   ar
     5     5     6   ar
     6     6     7   ar
     7     7     8   ar
     8     8     9   ar
     9     9    10   ar
    10    10    11   ar
    11    11    12   ar
    12     2    13    1
    13    13    14   ar
    14    14    15   ar
    15    15    16   ar
    16    16    17   ar
    17    17    18   ar
    18    18    19   ar
    19    19    20   ar
    20    12     1    1
    21    20    13   ar
    22    12     4   ar
    23    20    16   ar
    24    11     6   ar
    25     1    21    1
    26     1    22    1
    27     3    23    1
    28     5    24    1
    29     7    25    1
    30     8    26    1
    31     9    27    1
    32    10    28    1
    33    15    29    1
    34    17    30    1
    35    18    31    1
    36    19    32    1
