@<TRIPOS>MOLECULE
*****
 33 38 0 0 0
SMALL
GASTEIGER

@<TRIPOS>ATOM
      1 C           0.6172    0.2788   -0.3999 C.3     1  UNL1        0.0000
      2 C           1.4526   -0.2495    0.7752 C.2     1  UNL1        0.0000
      3 C           0.6375   -0.9060    1.6335 C.2     1  UNL1        0.0000
      4 C          -0.6972   -0.8623    1.1253 C.2     1  UNL1        0.0000
      5 C          -0.7506   -0.1880   -0.0455 C.2     1  UNL1        0.0000
      6 C          -2.0734   -0.1613   -0.5210 C.ar    1  UNL1        0.0000
      7 N          -2.5695    0.4030   -1.6475 N.ar    1  UNL1        0.0000
      8 C          -3.9343    0.1450   -1.6494 C.ar    1  UNL1        0.0000
      9 C          -5.0457    0.4250   -2.4894 C.ar    1  UNL1        0.0000
     10 C          -6.1926   -0.1123   -1.9429 C.ar    1  UNL1        0.0000
     11 S          -5.9544   -0.9390   -0.4512 S.2     1  UNL1        0.0000
     12 C          -4.2675   -0.5773   -0.5221 C.ar    1  UNL1        0.0000
     13 C          -3.0823   -0.7695    0.1918 C.ar    1  UNL1        0.0000
     14 SI         -2.3375   -1.5251    1.7262 Si      1  UNL1        0.0000
     15 C           2.8575   -0.0980    0.9725 C.ar    1  UNL1        0.0000
     16 S           3.7253   -0.7444    2.3621 S.2     1  UNL1        0.0000
     17 C           5.2656   -0.1521    1.8483 C.ar    1  UNL1        0.0000
     18 C           5.0813    0.4919    0.6850 C.ar    1  UNL1        0.0000
     19 O           6.0434    1.1064   -0.0550 O.2     1  UNL1        0.0000
     20 C           5.2687    1.5701   -1.1013 C.ar    1  UNL1        0.0000
     21 C           3.9093    1.2495   -0.9940 C.ar    1  UNL1        0.0000
     22 C           3.7938    0.5252    0.2093 C.ar    1  UNL1        0.0000
     23 H           0.9527   -0.1575   -1.3461 H       1  UNL1        0.0000
     24 H           0.6625    1.3712   -0.4525 H       1  UNL1        0.0000
     25 H           0.9084   -1.3947    2.5576 H       1  UNL1        0.0000
     26 H          -2.0891    0.9187   -2.3737 H       1  UNL1        0.0000
     27 H          -5.0137    0.9753   -3.4203 H       1  UNL1        0.0000
     28 H          -7.1930   -0.0639   -2.3506 H       1  UNL1        0.0000
     29 H          -2.3608   -3.0108    1.7497 H       1  UNL1        0.0000
     30 H          -2.7654   -0.8805    2.9949 H       1  UNL1        0.0000
     31 H           6.1827   -0.2996    2.3991 H       1  UNL1        0.0000
     32 H           5.8278    2.1142   -1.8516 H       1  UNL1        0.0000
     33 H           3.1404    1.5175   -1.7031 H       1  UNL1        0.0000
@<TRIPOS>BOND
     1     1     2    1
     2     2     3    2
     3     3     4    1
     4     4     5    2
     5     5     6    1
     6     6     7   ar
     7     7     8   ar
     8     8     9   ar
     9     9    10   ar
    10    10    11   ar
    11    11    12   ar
    12    12    13   ar
    13    13    14    1
    14     2    15    1
    15    15    16   ar
    16    16    17   ar
    17    17    18   ar
    18    18    19   ar
    19    19    20   ar
    20    20    21   ar
    21    21    22   ar
    22     5     1    1
    23    13     6   ar
    24    22    15   ar
    25    14     4    1
    26    22    18   ar
    27    12     8   ar
    28     1    23    1
    29     1    24    1
    30     3    25    1
    31     7    26    1
    32     9    27    1
    33    10    28    1
    34    14    29    1
    35    14    30    1
    36    17    31    1
    37    20    32    1
    38    21    33    1
