@<TRIPOS>MOLECULE
*****
 39 45 0 0 0
SMALL
GASTEIGER

@<TRIPOS>ATOM
      1 C           0.6679    1.6441   -0.3849 C.3     1  UNL1        0.0012
      2 C           1.8277    0.7041   -0.7441 C.2     1  UNL1       -0.0281
      3 C           1.5651   -0.5720   -0.3857 C.2     1  UNL1       -0.0491
      4 C           0.2482   -0.5961    0.2026 C.ar    1  UNL1       -0.0101
      5 C          -0.3287    0.6933    0.2231 C.ar    1  UNL1       -0.0113
      6 C          -1.6157    0.8883    0.7561 C.ar    1  UNL1        0.0537
      7 N          -2.4287    1.9921    0.9160 N.ar    1  UNL1       -0.3527
      8 C          -3.6107    1.5866    1.5115 C.ar    1  UNL1        0.0653
      9 C          -4.8542    2.0882    1.9703 C.ar    1  UNL1       -0.0204
     10 C          -5.5199    0.9813    2.4651 C.ar    1  UNL1        0.0042
     11 N          -4.7402   -0.1432    2.3245 N.ar    1  UNL1       -0.3589
     12 C          -3.5698    0.2391    1.7375 C.ar    1  UNL1        0.0727
     13 C          -2.3356   -0.1790    1.2677 C.ar    1  UNL1        0.0330
     14 C          -1.8127   -1.4964    1.2770 C.ar    1  UNL1        0.0111
     15 C          -2.2960   -2.6923    1.7092 C.ar    1  UNL1        0.0101
     16 N          -1.2864   -3.5978    1.4298 N.ar    1  UNL1       -0.3659
     17 C          -0.2053   -2.9607    0.8351 C.ar    1  UNL1        0.0100
     18 C          -0.5189   -1.6270    0.7295 C.ar    1  UNL1        0.0076
     19 C           3.0665    1.0522   -1.3589 C.ar    1  UNL1        0.0239
     20 S           3.7815    2.6091   -1.0538 S.2     1  UNL1       -0.0952
     21 C           5.1521    2.3070   -2.0456 C.ar    1  UNL1       -0.0094
     22 C           5.0623    1.0711   -2.6134 C.ar    1  UNL1        0.0269
     23 S           6.1695    0.2193   -3.7506 S.2     1  UNL1       -0.0961
     24 C           4.9808   -1.0727   -3.6973 C.ar    1  UNL1       -0.0231
     25 C           3.8646   -0.8540   -2.8814 C.ar    1  UNL1       -0.0459
     26 C           3.9014    0.4055   -2.2186 C.ar    1  UNL1        0.0037
     27 H           0.9726    2.3964    0.3487 H       1  UNL1        0.0363
     28 H           0.2553    2.1184   -1.2805 H       1  UNL1        0.0363
     29 H           2.1931   -1.4415   -0.4829 H       1  UNL1        0.0627
     30 H          -2.2315    2.9489    0.6564 H       1  UNL1        0.1660
     31 H          -5.2181    3.1058    1.9468 H       1  UNL1        0.0653
     32 H          -6.5013    0.8993    2.9139 H       1  UNL1        0.0807
     33 H          -4.9528   -1.0958    2.5916 H       1  UNL1        0.1654
     34 H          -3.2186   -3.0052    2.1745 H       1  UNL1        0.0813
     35 H          -1.3281   -4.5881    1.6314 H       1  UNL1        0.1648
     36 H           0.6717   -3.5265    0.5528 H       1  UNL1        0.0813
     37 H           5.9450    3.0299   -2.1778 H       1  UNL1        0.0705
     38 H           5.1799   -1.9499   -4.2977 H       1  UNL1        0.0694
     39 H           3.0680   -1.5818   -2.7907 H       1  UNL1        0.0629
@<TRIPOS>BOND
     1     1     2    1
     2     2     3    2
     3     3     4    1
     4     4     5   ar
     5     5     6   ar
     6     6     7   ar
     7     7     8   ar
     8     8     9   ar
     9     9    10   ar
    10    10    11   ar
    11    11    12   ar
    12    12    13   ar
    13    13    14   ar
    14    14    15   ar
    15    15    16   ar
    16    16    17   ar
    17    17    18   ar
    18     2    19    1
    19    19    20   ar
    20    20    21   ar
    21    21    22   ar
    22    22    23   ar
    23    23    24   ar
    24    24    25   ar
    25    25    26   ar
    26     5     1    1
    27    13     6   ar
    28    18    14   ar
    29    26    19   ar
    30    18     4   ar
    31    26    22   ar
    32    12     8   ar
    33     1    27    1
    34     1    28    1
    35     3    29    1
    36     7    30    1
    37     9    31    1
    38    10    32    1
    39    11    33    1
    40    15    34    1
    41    16    35    1
    42    17    36    1
    43    21    37    1
    44    24    38    1
    45    25    39    1
