@<TRIPOS>MOLECULE
*****
 44 50 0 0 0
SMALL
GASTEIGER

@<TRIPOS>ATOM
      1 C          -1.0459    0.6709    0.2733 C.3     1  UNL1        0.0007
      2 C          -1.9521   -0.5561    0.3008 C.2     1  UNL1       -0.0346
      3 C          -1.2448   -1.6967    0.1357 C.2     1  UNL1       -0.0496
      4 C           0.1420   -1.3312   -0.0093 C.ar    1  UNL1       -0.0101
      5 C           0.3169    0.0586    0.0646 C.ar    1  UNL1       -0.0114
      6 C           1.5992    0.6290   -0.0533 C.ar    1  UNL1        0.0522
      7 N           2.0426    1.9295   -0.0184 N.ar    1  UNL1       -0.3539
      8 C           3.4165    1.9922   -0.1823 C.ar    1  UNL1        0.0475
      9 C           4.2597    3.1108   -0.2088 C.ar    1  UNL1       -0.0378
     10 C           5.6276    2.8911   -0.3913 C.ar    1  UNL1       -0.0598
     11 C           6.1329    1.6025   -0.5415 C.ar    1  UNL1       -0.0611
     12 C           5.2802    0.4923   -0.5133 C.ar    1  UNL1       -0.0520
     13 C           3.8965    0.6835   -0.3308 C.ar    1  UNL1        0.0080
     14 C           2.7533   -0.1251   -0.2463 C.ar    1  UNL1        0.0168
     15 C           2.6004   -1.5521   -0.3254 C.ar    1  UNL1        0.0097
     16 C           3.5058   -2.5540   -0.5050 C.ar    1  UNL1        0.0101
     17 N           2.7592   -3.7184   -0.4934 N.ar    1  UNL1       -0.3659
     18 C           1.4151   -3.4337   -0.3093 C.ar    1  UNL1        0.0100
     19 C           1.2947   -2.0688   -0.2010 C.ar    1  UNL1        0.0075
     20 C          -3.4059   -0.5014    0.4837 C.ar    1  UNL1       -0.0108
     21 C          -4.2552   -1.6497    0.5135 C.ar    1  UNL1       -0.0536
     22 C          -5.6858   -1.6306    0.6914 C.ar    1  UNL1       -0.0605
     23 C          -6.4442   -0.4575    0.8618 C.ar    1  UNL1       -0.0510
     24 C          -5.6146    0.6519    0.8319 C.ar    1  UNL1        0.0204
     25 C          -6.0184    1.9520    0.9669 C.ar    1  UNL1        0.0994
     26 O          -4.9315    2.7715    0.8863 O.2     1  UNL1       -0.4698
     27 C          -3.8310    1.9797    0.6985 C.ar    1  UNL1        0.1000
     28 C          -4.1893    0.6536    0.6560 C.ar    1  UNL1        0.0272
     29 H          -1.0641    1.2084    1.2262 H       1  UNL1        0.0362
     30 H          -1.2835    1.3302   -0.5669 H       1  UNL1        0.0362
     31 H          -1.5907   -2.7156    0.1084 H       1  UNL1        0.0627
     32 H           1.4497    2.7355    0.1095 H       1  UNL1        0.1659
     33 H           3.8710    4.1172   -0.0922 H       1  UNL1        0.0638
     34 H           6.3069    3.7401   -0.4162 H       1  UNL1        0.0618
     35 H           7.2006    1.4538   -0.6824 H       1  UNL1        0.0618
     36 H           5.6916   -0.5040   -0.6319 H       1  UNL1        0.0624
     37 H           4.5767   -2.5809   -0.6379 H       1  UNL1        0.0813
     38 H           3.1406   -4.6486   -0.6038 H       1  UNL1        0.1648
     39 H           0.6881   -4.2331   -0.2751 H       1  UNL1        0.0813
     40 H          -3.8103   -2.6380    0.3941 H       1  UNL1        0.0624
     41 H          -6.2080   -2.5884    0.6933 H       1  UNL1        0.0618
     42 H          -7.5163   -0.4499    0.9947 H       1  UNL1        0.0625
     43 H          -6.9676    2.4464    1.1165 H       1  UNL1        0.1035
     44 H          -2.9087    2.5328    0.6207 H       1  UNL1        0.1036
@<TRIPOS>BOND
     1     1     2    1
     2     2     3    2
     3     3     4    1
     4     4     5   ar
     5     5     6   ar
     6     6     7   ar
     7     7     8   ar
     8     8     9   ar
     9     9    10   ar
    10    10    11   ar
    11    11    12   ar
    12    12    13   ar
    13    13    14   ar
    14    14    15   ar
    15    15    16   ar
    16    16    17   ar
    17    17    18   ar
    18    18    19   ar
    19     2    20    1
    20    20    21   ar
    21    21    22   ar
    22    22    23   ar
    23    23    24   ar
    24    24    25   ar
    25    25    26   ar
    26    26    27   ar
    27    27    28   ar
    28     5     1    1
    29    14     6   ar
    30    19    15   ar
    31    28    20   ar
    32    19     4   ar
    33    28    24   ar
    34    13     8   ar
    35     1    29    1
    36     1    30    1
    37     3    31    1
    38     7    32    1
    39     9    33    1
    40    10    34    1
    41    11    35    1
    42    12    36    1
    43    16    37    1
    44    17    38    1
    45    18    39    1
    46    21    40    1
    47    22    41    1
    48    23    42    1
    49    25    43    1
    50    27    44    1
