@<TRIPOS>MOLECULE
*****
 37 43 0 0 0
SMALL
GASTEIGER

@<TRIPOS>ATOM
      1 C           0.9101    0.6759   -0.0576 C.3     1  UNL1        0.0012
      2 C           1.8922   -0.5029    0.0392 C.2     1  UNL1       -0.0281
      3 C           1.2303   -1.6767    0.1679 C.2     1  UNL1       -0.0490
      4 C          -0.1835   -1.3921    0.1682 C.ar    1  UNL1       -0.0085
      5 C          -0.4284   -0.0066    0.0368 C.ar    1  UNL1       -0.0112
      6 C          -1.7474    0.4866    0.0148 C.ar    1  UNL1        0.0553
      7 N          -2.3046    1.7510   -0.0984 N.ar    1  UNL1       -0.3513
      8 C          -3.6861    1.6315   -0.0592 C.ar    1  UNL1        0.0860
      9 C          -4.8852    2.3731   -0.1083 C.ar    1  UNL1        0.0002
     10 C          -5.8544    1.3988    0.0068 C.ar    1  UNL1        0.0946
     11 O          -5.3426    0.1376    0.1207 O.2     1  UNL1       -0.4607
     12 C          -4.0003    0.3173    0.0763 C.ar    1  UNL1        0.1606
     13 C          -2.8209   -0.3860    0.1221 C.ar    1  UNL1        0.0536
     14 C          -2.6416   -1.7778    0.2552 C.ar    1  UNL1        0.0331
     15 C          -3.4820   -2.8350    0.3758 C.ar    1  UNL1        0.1001
     16 O          -2.6996   -3.9648    0.4712 O.2     1  UNL1       -0.4698
     17 C          -1.3790   -3.5719    0.4063 C.ar    1  UNL1        0.1000
     18 C          -1.3011   -2.2086    0.2708 C.ar    1  UNL1        0.0281
     19 C           3.3244   -0.4239    0.0032 C.ar    1  UNL1        0.0239
     20 S           4.3595   -1.8235    0.1343 S.2     1  UNL1       -0.0952
     21 C           5.8129   -0.9226    0.0099 C.ar    1  UNL1       -0.0094
     22 C           5.5353    0.4032   -0.1275 C.ar    1  UNL1        0.0269
     23 S           6.6411    1.8146   -0.3002 S.2     1  UNL1       -0.0961
     24 C           5.1673    2.7634   -0.3743 C.ar    1  UNL1       -0.0231
     25 C           3.9662    2.0513   -0.2749 C.ar    1  UNL1       -0.0459
     26 C           4.1605    0.6468   -0.1276 C.ar    1  UNL1        0.0037
     27 H           1.0438    1.3705    0.7773 H       1  UNL1        0.0363
     28 H           1.0072    1.1925   -1.0172 H       1  UNL1        0.0363
     29 H           1.6296   -2.6739    0.2580 H       1  UNL1        0.0627
     30 H          -1.8188    2.6329   -0.1947 H       1  UNL1        0.1660
     31 H          -5.0343    3.4373   -0.2099 H       1  UNL1        0.0670
     32 H          -6.9355    1.4424    0.0240 H       1  UNL1        0.1030
     33 H          -4.5510   -2.9861    0.4120 H       1  UNL1        0.1036
     34 H          -0.6586   -4.3747    0.4707 H       1  UNL1        0.1036
     35 H           6.7898   -1.3850    0.0410 H       1  UNL1        0.0705
     36 H           5.2766    3.8331   -0.4915 H       1  UNL1        0.0694
     37 H           3.0084    2.5521   -0.3108 H       1  UNL1        0.0629
@<TRIPOS>BOND
     1     1     2    1
     2     2     3    2
     3     3     4    1
     4     4     5   ar
     5     5     6   ar
     6     6     7   ar
     7     7     8   ar
     8     8     9   ar
     9     9    10   ar
    10    10    11   ar
    11    11    12   ar
    12    12    13   ar
    13    13    14   ar
    14    14    15   ar
    15    15    16   ar
    16    16    17   ar
    17    17    18   ar
    18     2    19    1
    19    19    20   ar
    20    20    21   ar
    21    21    22   ar
    22    22    23   ar
    23    23    24   ar
    24    24    25   ar
    25    25    26   ar
    26     5     1    1
    27    13     6   ar
    28    18    14   ar
    29    26    19   ar
    30    18     4   ar
    31    26    22   ar
    32    12     8   ar
    33     1    27    1
    34     1    28    1
    35     3    29    1
    36     7    30    1
    37     9    31    1
    38    10    32    1
    39    15    33    1
    40    17    34    1
    41    21    35    1
    42    24    36    1
    43    25    37    1
