@<TRIPOS>MOLECULE
*****
 46 52 0 0 0
SMALL
GASTEIGER

@<TRIPOS>ATOM
      1 C           2.0187   -1.1695   -0.1283 C.3     1  UNL1        0.0000
      2 C           3.2413   -0.2851   -0.2604 C.2     1  UNL1        0.0000
      3 C           2.9006    0.9985   -0.0635 C.2     1  UNL1        0.0000
      4 C           1.4594    1.0879    0.1727 C.ar    1  UNL1        0.0000
      5 C           0.8865   -0.1966    0.1072 C.ar    1  UNL1        0.0000
      6 C          -0.5137   -0.4405    0.1790 C.ar    1  UNL1        0.0000
      7 C          -1.1413   -1.7747    0.1280 C.ar    1  UNL1        0.0000
      8 C          -0.4401   -3.0071    0.2677 C.ar    1  UNL1        0.0000
      9 C          -1.0381   -4.2703    0.1985 C.ar    1  UNL1        0.0000
     10 C          -2.3942   -4.3675   -0.0069 C.ar    1  UNL1        0.0000
     11 C          -3.1351   -3.1993   -0.1268 C.ar    1  UNL1        0.0000
     12 C          -2.5440   -1.9083   -0.0549 C.ar    1  UNL1        0.0000
     13 C          -3.3097   -0.7433   -0.1884 C.ar    1  UNL1        0.0000
     14 C          -4.7574   -0.7195   -0.5360 C.2     1  UNL1        0.0000
     15 C          -5.2847    0.4956   -0.7384 C.2     1  UNL1        0.0000
     16 SI         -4.0537    1.8447   -0.4930 Si      1  UNL1        0.0000
     17 C          -2.7097    0.5426   -0.0218 C.ar    1  UNL1        0.0000
     18 C          -1.3234    0.7387    0.2621 C.ar    1  UNL1        0.0000
     19 C          -0.6996    2.0387    0.5723 C.ar    1  UNL1        0.0000
     20 C          -1.3960    3.1806    1.0537 C.ar    1  UNL1        0.0000
     21 C          -0.8022    4.4305    1.2630 C.ar    1  UNL1        0.0000
     22 C           0.5470    4.5908    1.0284 C.ar    1  UNL1        0.0000
     23 C           1.2942    3.4853    0.6441 C.ar    1  UNL1        0.0000
     24 C           0.6981    2.2132    0.4539 C.ar    1  UNL1        0.0000
     25 C           4.5898   -0.6668   -0.5334 C.ar    1  UNL1        0.0000
     26 C           5.7501    0.0823   -0.6830 C.ar    1  UNL1        0.0000
     27 N           6.9153   -0.6134   -0.9471 N.ar    1  UNL1        0.0000
     28 C           6.6431   -1.8957   -1.0009 C.ar    1  UNL1        0.0000
     29 S           5.0106   -2.3338   -0.7423 S.2     1  UNL1        0.0000
     30 H           1.8584   -1.7421   -1.0472 H       1  UNL1        0.0000
     31 H           2.1663   -1.8142    0.7431 H       1  UNL1        0.0000
     32 H           3.5534    1.8554   -0.0902 H       1  UNL1        0.0000
     33 H           0.6173   -3.0327    0.4823 H       1  UNL1        0.0000
     34 H          -0.4346   -5.1661    0.3180 H       1  UNL1        0.0000
     35 H          -2.8800   -5.3371   -0.0614 H       1  UNL1        0.0000
     36 H          -4.2049   -3.3198   -0.2700 H       1  UNL1        0.0000
     37 H          -5.3465   -1.6189   -0.6414 H       1  UNL1        0.0000
     38 H          -6.3091    0.7033   -1.0073 H       1  UNL1        0.0000
     39 H          -3.7357    2.5568   -1.7553 H       1  UNL1        0.0000
     40 H          -4.4667    2.7122    0.6395 H       1  UNL1        0.0000
     41 H          -2.4329    3.1029    1.3587 H       1  UNL1        0.0000
     42 H          -1.3993    5.2626    1.6266 H       1  UNL1        0.0000
     43 H           1.0259    5.5531    1.1840 H       1  UNL1        0.0000
     44 H           2.3651    3.6241    0.5214 H       1  UNL1        0.0000
     45 H           5.8068    1.1614   -0.6086 H       1  UNL1        0.0000
     46 H           7.4046   -2.6390   -1.1975 H       1  UNL1        0.0000
@<TRIPOS>BOND
     1     1     2    1
     2     2     3    2
     3     3     4    1
     4     4     5   ar
     5     5     6   ar
     6     6     7   ar
     7     7     8   ar
     8     8     9   ar
     9     9    10   ar
    10    10    11   ar
    11    11    12   ar
    12    12    13   ar
    13    13    14    1
    14    14    15    2
    15    15    16    1
    16    16    17    1
    17    17    18   ar
    18    18    19   ar
    19    19    20   ar
    20    20    21   ar
    21    21    22   ar
    22    22    23   ar
    23    23    24   ar
    24     2    25    1
    25    25    26   ar
    26    26    27   ar
    27    27    28   ar
    28    28    29   ar
    29     5     1    1
    30    18     6   ar
    31    24    19   ar
    32    29    25   ar
    33    24     4   ar
    34    12     7   ar
    35    17    13   ar
    36     1    30    1
    37     1    31    1
    38     3    32    1
    39     8    33    1
    40     9    34    1
    41    10    35    1
    42    11    36    1
    43    14    37    1
    44    15    38    1
    45    16    39    1
    46    16    40    1
    47    20    41    1
    48    21    42    1
    49    22    43    1
    50    23    44    1
    51    26    45    1
    52    28    46    1
