@<TRIPOS>MOLECULE
*****
 45 52 0 0 0
SMALL
GASTEIGER

@<TRIPOS>ATOM
      1 C          -1.3923    0.1737   -0.0175 C.3     1  UNL1        0.0009
      2 C          -2.3731   -0.5895    0.8542 C.2     1  UNL1       -0.0149
      3 C          -1.7551   -1.4680    1.6621 C.2     1  UNL1       -0.0480
      4 C          -0.3525   -1.3449    1.3821 C.ar    1  UNL1       -0.0099
      5 C          -0.0384   -0.3861    0.3897 C.ar    1  UNL1       -0.0268
      6 C           1.3072   -0.0494   -0.0971 C.ar    1  UNL1       -0.0043
      7 C           1.6064    0.9355   -1.1139 C.ar    1  UNL1       -0.0092
      8 C           0.6477    1.7322   -1.8020 C.ar    1  UNL1       -0.0534
      9 C           0.9740    2.6777   -2.7825 C.ar    1  UNL1       -0.0611
     10 C           2.2922    2.8787   -3.1307 C.ar    1  UNL1       -0.0611
     11 C           3.2752    2.1321   -2.4953 C.ar    1  UNL1       -0.0534
     12 C           2.9578    1.1704   -1.4997 C.ar    1  UNL1       -0.0091
     13 C           4.0527    0.4607   -0.9137 C.ar    1  UNL1       -0.0025
     14 C           5.4777    0.5556   -1.1679 C.ar    1  UNL1       -0.0464
     15 C           6.2329   -0.2933   -0.4050 C.ar    1  UNL1       -0.0231
     16 S           5.2635   -1.2147    0.6234 S.2     1  UNL1       -0.0960
     17 C           3.7784   -0.4966    0.0727 C.ar    1  UNL1        0.0283
     18 C           2.4425   -0.7614    0.4866 C.ar    1  UNL1        0.0080
     19 C           2.0827   -1.7192    1.4831 C.ar    1  UNL1        0.0292
     20 C           2.8461   -2.5717    2.2487 C.ar    1  UNL1        0.1000
     21 O           2.0595   -3.3195    3.0832 O.2     1  UNL1       -0.4698
     22 C           0.7675   -2.9518    2.8609 C.ar    1  UNL1        0.1000
     23 C           0.7425   -1.9837    1.8972 C.ar    1  UNL1        0.0279
     24 C          -3.8187   -0.3869    0.8140 C.ar    1  UNL1        0.0954
     25 N          -4.6125   -1.1359    1.6507 N.ar    1  UNL1       -0.2530
     26 C          -5.9743   -0.9977    1.6653 C.ar    1  UNL1        0.0304
     27 C          -6.7400   -0.1358    0.8905 C.ar    1  UNL1       -0.0153
     28 C          -5.9756    0.6558    0.0144 C.ar    1  UNL1        0.1034
     29 N          -6.4748    1.5652   -0.8376 N.ar    1  UNL1       -0.1907
     30 S          -5.1811    2.2225   -1.6388 S.2     1  UNL1        0.1165
     31 N          -3.9300    1.3861   -0.9439 N.ar    1  UNL1       -0.1886
     32 C          -4.4705    0.5435   -0.0420 C.ar    1  UNL1        0.1254
     33 H          -1.5856   -0.0447   -1.0724 H       1  UNL1        0.0362
     34 H          -1.4413    1.2418    0.2162 H       1  UNL1        0.0362
     35 H          -2.2027   -2.1365    2.3796 H       1  UNL1        0.0627
     36 H          -0.4104    1.6519   -1.6034 H       1  UNL1        0.0624
     37 H           0.1865    3.2503   -3.2660 H       1  UNL1        0.0618
     38 H           2.5587    3.6087   -3.8894 H       1  UNL1        0.0618
     39 H           4.3018    2.3189   -2.7967 H       1  UNL1        0.0624
     40 H           5.9334    1.2241   -1.8864 H       1  UNL1        0.0629
     41 H           7.3081   -0.4095   -0.4093 H       1  UNL1        0.0694
     42 H           3.8971   -2.7913    2.3501 H       1  UNL1        0.1036
     43 H           0.0233   -3.4630    3.4546 H       1  UNL1        0.1036
     44 H          -6.4695   -1.6568    2.3788 H       1  UNL1        0.0830
     45 H          -7.8170   -0.0776    0.9530 H       1  UNL1        0.0655
@<TRIPOS>BOND
     1     1     2    1
     2     2     3    2
     3     3     4    1
     4     4     5   ar
     5     5     6   ar
     6     6     7   ar
     7     7     8   ar
     8     8     9   ar
     9     9    10   ar
    10    10    11   ar
    11    11    12   ar
    12    12    13   ar
    13    13    14   ar
    14    14    15   ar
    15    15    16   ar
    16    16    17   ar
    17    17    18   ar
    18    18    19   ar
    19    19    20   ar
    20    20    21   ar
    21    21    22   ar
    22    22    23   ar
    23     2    24    1
    24    24    25   ar
    25    25    26   ar
    26    26    27   ar
    27    27    28   ar
    28    28    29   ar
    29    29    30   ar
    30    30    31   ar
    31    31    32   ar
    32     5     1    1
    33    18     6   ar
    34    23    19   ar
    35    32    24   ar
    36    23     4   ar
    37    32    28   ar
    38    12     7   ar
    39    17    13   ar
    40     1    33    1
    41     1    34    1
    42     3    35    1
    43     8    36    1
    44     9    37    1
    45    10    38    1
    46    11    39    1
    47    14    40    1
    48    15    41    1
    49    20    42    1
    50    22    43    1
    51    26    44    1
    52    27    45    1
