@<TRIPOS>MOLECULE
*****
 39 44 0 0 0
SMALL
GASTEIGER

@<TRIPOS>ATOM
      1 SI          1.2741    0.3842    0.9807 Si      1  UNL1        0.0000
      2 C           0.0307   -0.5746   -0.0772 C.2     1  UNL1        0.0000
      3 C           0.6645   -1.3227   -1.0049 C.2     1  UNL1        0.0000
      4 C           2.1169   -1.2085   -1.0116 C.2     1  UNL1        0.0000
      5 C           2.6293   -0.3829   -0.0773 C.2     1  UNL1        0.0000
      6 C           3.9972   -0.1147    0.0943 C.ar    1  UNL1        0.0000
      7 S           4.8965   -0.4675    1.5397 S.2     1  UNL1        0.0000
      8 C           6.3984    0.1140    0.8866 C.ar    1  UNL1        0.0000
      9 C           6.1523    0.5547   -0.3633 C.ar    1  UNL1        0.0000
     10 C           6.8042    1.1464   -1.4724 C.ar    1  UNL1        0.0000
     11 C           5.8292    1.3259   -2.4767 C.ar    1  UNL1        0.0000
     12 N           4.5771    0.8731   -2.0655 N.ar    1  UNL1        0.0000
     13 C           4.8527    0.4296   -0.8016 C.ar    1  UNL1        0.0000
     14 C          -1.3705   -0.5545    0.1096 C.ar    1  UNL1        0.0000
     15 S          -2.2556    0.9301    0.3922 S.2     1  UNL1        0.0000
     16 C          -3.8135    0.1612    0.4570 C.ar    1  UNL1        0.0000
     17 C          -5.0460    0.8779    0.6623 C.ar    1  UNL1        0.0000
     18 C          -5.1968    2.1485    1.1973 C.ar    1  UNL1        0.0000
     19 C          -6.5557    2.5789    1.2494 C.ar    1  UNL1        0.0000
     20 C          -7.4113    1.6285    0.7458 C.ar    1  UNL1        0.0000
     21 S          -6.5781    0.2345    0.2184 S.2     1  UNL1        0.0000
     22 C          -3.6078   -1.1618    0.2795 C.ar    1  UNL1        0.0000
     23 O          -4.5400   -2.1579    0.2751 O.2     1  UNL1        0.0000
     24 C          -3.7260   -3.2517    0.0574 C.ar    1  UNL1        0.0000
     25 C          -2.3679   -2.9397   -0.0600 C.ar    1  UNL1        0.0000
     26 C          -2.2996   -1.5427    0.0899 C.ar    1  UNL1        0.0000
     27 H           1.1687    1.8559    0.7937 H       1  UNL1        0.0000
     28 H           1.2916   -0.0944    2.3886 H       1  UNL1        0.0000
     29 H           0.1666   -1.9696   -1.7185 H       1  UNL1        0.0000
     30 H           2.7096   -1.7710   -1.7253 H       1  UNL1        0.0000
     31 H           7.3146    0.0908    1.4590 H       1  UNL1        0.0000
     32 H           7.8469    1.4224   -1.5575 H       1  UNL1        0.0000
     33 H           5.9307    1.7536   -3.4652 H       1  UNL1        0.0000
     34 H           3.6838    0.8653   -2.5436 H       1  UNL1        0.0000
     35 H          -4.3690    2.7553    1.5454 H       1  UNL1        0.0000
     36 H          -6.8847    3.5370    1.6340 H       1  UNL1        0.0000
     37 H          -8.4878    1.6835    0.6597 H       1  UNL1        0.0000
     38 H          -4.2600   -4.1922    0.0135 H       1  UNL1        0.0000
     39 H          -1.5653   -3.6447   -0.2215 H       1  UNL1        0.0000
@<TRIPOS>BOND
     1     1     2    1
     2     2     3    2
     3     3     4    1
     4     4     5    2
     5     5     6    1
     6     6     7   ar
     7     7     8   ar
     8     8     9   ar
     9     9    10   ar
    10    10    11   ar
    11    11    12   ar
    12    12    13   ar
    13     2    14    1
    14    14    15   ar
    15    15    16   ar
    16    16    17    1
    17    17    18   ar
    18    18    19   ar
    19    19    20   ar
    20    20    21   ar
    21    16    22   ar
    22    22    23   ar
    23    23    24   ar
    24    24    25   ar
    25    25    26   ar
    26     5     1    1
    27    13     6   ar
    28    26    14   ar
    29    13     9   ar
    30    21    17   ar
    31    26    22   ar
    32     1    27    1
    33     1    28    1
    34     3    29    1
    35     4    30    1
    36     8    31    1
    37    10    32    1
    38    11    33    1
    39    12    34    1
    40    18    35    1
    41    19    36    1
    42    20    37    1
    43    24    38    1
    44    25    39    1
