@<TRIPOS>MOLECULE
*****
 45 52 0 0 0
SMALL
GASTEIGER

@<TRIPOS>ATOM
      1 C           2.4514    1.0226   -0.1761 C.3     1  UNL1        0.0013
      2 C           3.4595   -0.0961   -0.0491 C.2     1  UNL1       -0.0103
      3 C           2.8437   -1.2474    0.2726 C.2     1  UNL1       -0.0477
      4 C           1.4051   -1.0134    0.3708 C.ar    1  UNL1       -0.0129
      5 C           1.1415    0.3284    0.0806 C.ar    1  UNL1       -0.0269
      6 C          -0.1812    0.8296    0.0368 C.ar    1  UNL1       -0.0044
      7 C          -0.5858    2.1916   -0.1592 C.ar    1  UNL1       -0.0023
      8 C           0.2773    3.2641   -0.2294 C.ar    1  UNL1       -0.0160
      9 S          -0.5259    4.7643   -0.4205 S.2     1  UNL1       -0.1038
     10 C          -2.0538    4.0010   -0.4213 C.ar    1  UNL1       -0.0160
     11 C          -1.9594    2.6325   -0.2730 C.ar    1  UNL1       -0.0025
     12 C          -3.0830    1.7722   -0.3053 C.ar    1  UNL1       -0.0069
     13 C          -4.4286    2.2403   -0.5126 C.ar    1  UNL1       -0.0513
     14 C          -5.5154    1.3896   -0.7014 C.ar    1  UNL1       -0.0329
     15 C          -5.1952    0.0238   -0.7640 C.ar    1  UNL1        0.1005
     16 N          -6.0843   -0.9413   -1.0457 N.ar    1  UNL1       -0.1908
     17 S          -5.2340   -2.3560   -1.1245 S.2     1  UNL1        0.1165
     18 N          -3.7183   -1.8109   -0.7700 N.ar    1  UNL1       -0.1901
     19 C          -3.7863   -0.4883   -0.5237 C.ar    1  UNL1        0.1082
     20 C          -2.6765    0.3852   -0.1575 C.ar    1  UNL1        0.0192
     21 C          -1.2873   -0.0755    0.2028 C.ar    1  UNL1        0.0006
     22 C          -0.9484   -1.3939    0.7451 C.ar    1  UNL1       -0.0089
     23 C          -1.8923   -2.2421    1.3777 C.ar    1  UNL1       -0.0534
     24 C          -1.5942   -3.5270    1.8448 C.ar    1  UNL1       -0.0611
     25 C          -0.3077   -4.0144    1.7316 C.ar    1  UNL1       -0.0611
     26 C           0.6802   -3.1898    1.2077 C.ar    1  UNL1       -0.0534
     27 C           0.3899   -1.8795    0.7596 C.ar    1  UNL1       -0.0098
     28 C           4.8765   -0.0601   -0.2121 C.ar    1  UNL1        0.1046
     29 N           5.7102   -1.0777   -0.0784 N.ar    1  UNL1       -0.2477
     30 C           7.0115   -0.6815   -0.3088 C.ar    1  UNL1        0.0354
     31 C           7.1799    0.6469   -0.6200 C.ar    1  UNL1       -0.0042
     32 S           5.6614    1.4328   -0.6262 S.2     1  UNL1       -0.0760
     33 H           2.4743    1.4516   -1.1827 H       1  UNL1        0.0363
     34 H           2.6503    1.7774    0.5909 H       1  UNL1        0.0363
     35 H           3.3233   -2.2020    0.4275 H       1  UNL1        0.0627
     36 H           1.3504    3.3063   -0.1680 H       1  UNL1        0.0700
     37 H          -2.9267    4.6253   -0.5410 H       1  UNL1        0.0700
     38 H          -4.6379    3.3078   -0.5530 H       1  UNL1        0.0624
     39 H          -6.5214    1.7530   -0.8699 H       1  UNL1        0.0640
     40 H          -2.9070   -1.8943    1.5550 H       1  UNL1        0.0624
     41 H          -2.3741   -4.1328    2.2979 H       1  UNL1        0.0618
     42 H          -0.0619   -5.0120    2.0832 H       1  UNL1        0.0618
     43 H           1.6967   -3.5746    1.1843 H       1  UNL1        0.0624
     44 H           7.8076   -1.4123   -0.2353 H       1  UNL1        0.0835
     45 H           8.0958    1.1766   -0.8374 H       1  UNL1        0.0709
@<TRIPOS>BOND
     1     1     2    1
     2     2     3    2
     3     3     4    1
     4     4     5   ar
     5     5     6   ar
     6     6     7   ar
     7     7     8   ar
     8     8     9   ar
     9     9    10   ar
    10    10    11   ar
    11    11    12   ar
    12    12    13   ar
    13    13    14   ar
    14    14    15   ar
    15    15    16   ar
    16    16    17   ar
    17    17    18   ar
    18    18    19   ar
    19    19    20   ar
    20    20    21   ar
    21    21    22   ar
    22    22    23   ar
    23    23    24   ar
    24    24    25   ar
    25    25    26   ar
    26    26    27   ar
    27     2    28    1
    28    28    29   ar
    29    29    30   ar
    30    30    31   ar
    31    31    32   ar
    32     5     1    1
    33    21     6   ar
    34    27    22   ar
    35    32    28   ar
    36    27     4   ar
    37    11     7   ar
    38    20    12   ar
    39    19    15   ar
    40     1    33    1
    41     1    34    1
    42     3    35    1
    43     8    36    1
    44    10    37    1
    45    13    38    1
    46    14    39    1
    47    23    40    1
    48    24    41    1
    49    25    42    1
    50    26    43    1
    51    30    44    1
    52    31    45    1
