@<TRIPOS>MOLECULE
*****
 47 54 0 0 0
SMALL
GASTEIGER

@<TRIPOS>ATOM
      1 C           1.5575    0.4919   -0.2823 C.3     1  UNL1       -0.0002
      2 C           2.6693   -0.5397   -0.0568 C.2     1  UNL1       -0.0281
      3 C           2.1595   -1.6989    0.4051 C.2     1  UNL1       -0.0491
      4 C           0.7351   -1.5210    0.5000 C.ar    1  UNL1       -0.0115
      5 C           0.3034   -0.2497    0.1070 C.ar    1  UNL1       -0.0269
      6 C          -1.0905    0.1757    0.1163 C.ar    1  UNL1       -0.0044
      7 C          -1.5852    1.4747   -0.2231 C.ar    1  UNL1       -0.0023
      8 C          -0.7935    2.5399   -0.5961 C.ar    1  UNL1       -0.0160
      9 S          -1.6851    3.9675   -0.9146 S.2     1  UNL1       -0.1038
     10 C          -3.1607    3.1831   -0.5638 C.ar    1  UNL1       -0.0160
     11 C          -2.9825    1.8620   -0.2090 C.ar    1  UNL1       -0.0026
     12 C          -4.0676    0.9994    0.0982 C.ar    1  UNL1       -0.0091
     13 C          -5.4379    1.3850    0.0693 C.ar    1  UNL1       -0.0534
     14 C          -6.4403    0.4565    0.3077 C.ar    1  UNL1       -0.0611
     15 C          -6.0905   -0.8593    0.5478 C.ar    1  UNL1       -0.0611
     16 C          -4.7391   -1.2348    0.5871 C.ar    1  UNL1       -0.0534
     17 C          -3.6595   -0.3319    0.4170 C.ar    1  UNL1       -0.0089
     18 C          -2.2154   -0.7104    0.5034 C.ar    1  UNL1       -0.0001
     19 C          -1.6652   -1.9660    0.9729 C.ar    1  UNL1        0.0083
     20 C          -2.2938   -3.0036    1.6292 C.ar    1  UNL1        0.0100
     21 N          -1.3658   -3.9929    1.8901 N.ar    1  UNL1       -0.3659
     22 C          -0.1206   -3.5876    1.4850 C.ar    1  UNL1        0.0100
     23 C          -0.2747   -2.3341    0.9521 C.ar    1  UNL1        0.0074
     24 C           4.0652   -0.3371   -0.2856 C.ar    1  UNL1        0.0249
     25 S           5.2949   -1.5631   -0.0084 S.2     1  UNL1       -0.0943
     26 C           6.6106   -0.5525   -0.5038 C.ar    1  UNL1        0.0002
     27 C           6.0997    0.6422   -0.8528 C.ar    1  UNL1        0.0542
     28 N           6.7949    1.7264   -1.3024 N.ar    1  UNL1       -0.3602
     29 C           5.7663    2.6446   -1.4979 C.ar    1  UNL1        0.0028
     30 C           4.5098    2.0937   -1.1661 C.ar    1  UNL1       -0.0356
     31 C           4.7333    0.7566   -0.7353 C.ar    1  UNL1        0.0141
     32 H           1.7220    1.3517    0.3746 H       1  UNL1        0.0362
     33 H           1.5260    0.7844   -1.3365 H       1  UNL1        0.0362
     34 H           2.6690   -2.6113    0.6657 H       1  UNL1        0.0627
     35 H           0.2731    2.6130   -0.7110 H       1  UNL1        0.0700
     36 H          -4.0729    3.7547   -0.6482 H       1  UNL1        0.0700
     37 H          -5.7319    2.4058   -0.1535 H       1  UNL1        0.0624
     38 H          -7.4846    0.7529    0.2764 H       1  UNL1        0.0618
     39 H          -6.8629   -1.6107    0.6923 H       1  UNL1        0.0618
     40 H          -4.5558   -2.2953    0.7019 H       1  UNL1        0.0624
     41 H          -3.2999   -3.1564    1.9843 H       1  UNL1        0.0813
     42 H          -1.5685   -4.8658    2.3600 H       1  UNL1        0.1648
     43 H           0.7481   -4.2117    1.6444 H       1  UNL1        0.0813
     44 H           7.6366   -0.8914   -0.5057 H       1  UNL1        0.0714
     45 H           7.7936    1.8119   -1.4461 H       1  UNL1        0.1653
     46 H           6.0094    3.6341   -1.8636 H       1  UNL1        0.0807
     47 H           3.5664    2.6175   -1.2371 H       1  UNL1        0.0639
@<TRIPOS>BOND
     1     1     2    1
     2     2     3    2
     3     3     4    1
     4     4     5   ar
     5     5     6   ar
     6     6     7   ar
     7     7     8   ar
     8     8     9   ar
     9     9    10   ar
    10    10    11   ar
    11    11    12   ar
    12    12    13   ar
    13    13    14   ar
    14    14    15   ar
    15    15    16   ar
    16    16    17   ar
    17    17    18   ar
    18    18    19   ar
    19    19    20   ar
    20    20    21   ar
    21    21    22   ar
    22    22    23   ar
    23     2    24    1
    24    24    25   ar
    25    25    26   ar
    26    26    27   ar
    27    27    28   ar
    28    28    29   ar
    29    29    30   ar
    30    30    31   ar
    31     5     1    1
    32    18     6   ar
    33    23    19   ar
    34    31    24   ar
    35    23     4   ar
    36    31    27   ar
    37    11     7   ar
    38    17    12   ar
    39     1    32    1
    40     1    33    1
    41     3    34    1
    42     8    35    1
    43    10    36    1
    44    13    37    1
    45    14    38    1
    46    15    39    1
    47    16    40    1
    48    20    41    1
    49    21    42    1
    50    22    43    1
    51    26    44    1
    52    28    45    1
    53    29    46    1
    54    30    47    1
