@<TRIPOS>MOLECULE
*****
 45 52 0 0 0
SMALL
GASTEIGER

@<TRIPOS>ATOM
      1 C           1.4785    0.0563   -0.2546 C.3     1  UNL1       -0.0001
      2 C           2.4923   -0.1107    0.8890 C.2     1  UNL1       -0.0266
      3 C           1.8613   -0.3016    2.0669 C.2     1  UNL1       -0.0490
      4 C           0.4494   -0.2755    1.7955 C.ar    1  UNL1       -0.0099
      5 C           0.1475   -0.0678    0.4418 C.ar    1  UNL1       -0.0268
      6 C          -1.2064   -0.0004   -0.0908 C.ar    1  UNL1       -0.0029
      7 C          -1.6065    0.2064   -1.4458 C.ar    1  UNL1       -0.0022
      8 C          -0.7379    0.3810   -2.5006 C.ar    1  UNL1       -0.0160
      9 S          -1.5447    0.6050   -3.9972 S.2     1  UNL1       -0.1038
     10 C          -3.0797    0.4714   -3.2550 C.ar    1  UNL1       -0.0160
     11 C          -2.9829    0.2607   -1.8966 C.ar    1  UNL1       -0.0011
     12 C          -4.1176    0.1158   -1.0523 C.ar    1  UNL1        0.0092
     13 C          -5.4714    0.1649   -1.4684 C.ar    1  UNL1       -0.0505
     14 C          -6.4793    0.0075   -0.5342 C.ar    1  UNL1       -0.0430
     15 C          -6.1036   -0.1922    0.7745 C.ar    1  UNL1        0.0283
     16 N          -4.8179   -0.2427    1.1948 N.ar    1  UNL1       -0.2543
     17 C          -3.7985   -0.0940    0.3172 C.ar    1  UNL1        0.0799
     18 C          -2.4112   -0.1463    0.7555 C.ar    1  UNL1        0.0197
     19 C          -2.0089   -0.3538    2.1156 C.ar    1  UNL1        0.0302
     20 C          -2.7878   -0.5372    3.2345 C.ar    1  UNL1        0.1001
     21 O          -2.0054   -0.7014    4.3451 O.2     1  UNL1       -0.4698
     22 C          -0.7033   -0.6239    3.9444 C.ar    1  UNL1        0.1000
     23 C          -0.6602   -0.4128    2.5940 C.ar    1  UNL1        0.0279
     24 C           3.9233   -0.0737    0.7559 C.ar    1  UNL1        0.0431
     25 S           4.9972   -0.2767    2.1103 S.2     1  UNL1       -0.0926
     26 C           6.4100   -0.1109    1.1626 C.ar    1  UNL1        0.0038
     27 C           6.1026    0.0945   -0.1541 C.ar    1  UNL1        0.0968
     28 N           7.0532    0.2574   -1.1156 N.ar    1  UNL1       -0.2514
     29 C           6.4777    0.4442   -2.3337 C.ar    1  UNL1        0.0464
     30 C           5.0999    0.4677   -2.5776 C.ar    1  UNL1        0.0464
     31 N           4.1315    0.3074   -1.6341 N.ar    1  UNL1       -0.2508
     32 C           4.6783    0.1168   -0.3937 C.ar    1  UNL1        0.1036
     33 H           1.5854    1.0465   -0.7082 H       1  UNL1        0.0362
     34 H           1.6061   -0.7458   -0.9882 H       1  UNL1        0.0362
     35 H           2.2793   -0.4500    3.0488 H       1  UNL1        0.0627
     36 H           0.3390    0.3970   -2.5228 H       1  UNL1        0.0700
     37 H          -3.9598    0.5579   -3.8756 H       1  UNL1        0.0700
     38 H          -5.7402    0.3238   -2.5074 H       1  UNL1        0.0625
     39 H          -7.5247    0.0395   -0.8174 H       1  UNL1        0.0633
     40 H          -6.8468   -0.3227    1.5564 H       1  UNL1        0.0830
     41 H          -3.8510   -0.5789    3.4237 H       1  UNL1        0.1036
     42 H           0.0337   -0.7373    4.7263 H       1  UNL1        0.1036
     43 H           7.3909   -0.1712    1.6109 H       1  UNL1        0.0715
     44 H           7.1786    0.5819   -3.1525 H       1  UNL1        0.0845
     45 H           4.7302    0.6238   -3.5874 H       1  UNL1        0.0845
@<TRIPOS>BOND
     1     1     2    1
     2     2     3    2
     3     3     4    1
     4     4     5   ar
     5     5     6   ar
     6     6     7   ar
     7     7     8   ar
     8     8     9   ar
     9     9    10   ar
    10    10    11   ar
    11    11    12   ar
    12    12    13   ar
    13    13    14   ar
    14    14    15   ar
    15    15    16   ar
    16    16    17   ar
    17    17    18   ar
    18    18    19   ar
    19    19    20   ar
    20    20    21   ar
    21    21    22   ar
    22    22    23   ar
    23     2    24    1
    24    24    25   ar
    25    25    26   ar
    26    26    27   ar
    27    27    28   ar
    28    28    29   ar
    29    29    30   ar
    30    30    31   ar
    31    31    32   ar
    32     5     1    1
    33    18     6   ar
    34    23    19   ar
    35    32    24   ar
    36    23     4   ar
    37    32    27   ar
    38    11     7   ar
    39    17    12   ar
    40     1    33    1
    41     1    34    1
    42     3    35    1
    43     8    36    1
    44    10    37    1
    45    13    38    1
    46    14    39    1
    47    15    40    1
    48    20    41    1
    49    22    42    1
    50    26    43    1
    51    29    44    1
    52    30    45    1
