@<TRIPOS>MOLECULE
*****
 43 49 0 0 0
SMALL
GASTEIGER

@<TRIPOS>ATOM
      1 C           1.7704   -0.6150   -0.4317 C.3     1  UNL1        0.0000
      2 C           2.6756    0.3561    0.2778 C.2     1  UNL1        0.0000
      3 C           1.9239    1.2422    0.9532 C.2     1  UNL1        0.0000
      4 C           0.5201    0.9503    0.7601 C.ar    1  UNL1        0.0000
      5 C           0.4016   -0.1249   -0.0411 C.ar    1  UNL1        0.0000
      6 C          -0.9014   -0.6872   -0.4378 C.ar    1  UNL1        0.0000
      7 C          -0.9412   -1.8387   -1.2974 C.ar    1  UNL1        0.0000
      8 N           0.1008   -2.5140   -1.8211 N.ar    1  UNL1        0.0000
      9 S          -0.5123   -3.7498   -2.7330 S.2     1  UNL1        0.0000
     10 N          -2.1338   -3.5060   -2.5209 N.ar    1  UNL1        0.0000
     11 C          -2.2597   -2.4349   -1.7184 C.ar    1  UNL1        0.0000
     12 C          -3.4601   -1.8541   -1.2621 C.ar    1  UNL1        0.0000
     13 C          -4.7812   -2.3787   -1.6292 C.2     1  UNL1        0.0000
     14 C          -5.7949   -1.6842   -1.0911 C.2     1  UNL1        0.0000
     15 SI         -5.2080   -0.2639   -0.0410 Si      1  UNL1        0.0000
     16 C          -3.3868   -0.7033   -0.4038 C.ar    1  UNL1        0.0000
     17 C          -2.1576   -0.1125    0.0144 C.ar    1  UNL1        0.0000
     18 C          -2.0224    1.0959    0.9142 C.ar    1  UNL1        0.0000
     19 C          -2.9973    1.8378    1.4848 C.2     1  UNL1        0.0000
     20 SI         -2.3251    3.2498    2.5273 Si      1  UNL1        0.0000
     21 C          -0.6272    2.6816    2.0734 C.2     1  UNL1        0.0000
     22 C          -0.6606    1.6014    1.2675 C.ar    1  UNL1        0.0000
     23 C           4.1367    0.3136    0.2201 C.ar    1  UNL1        0.0000
     24 C           4.8193   -0.6531   -0.5144 C.ar    1  UNL1        0.0000
     25 C           6.2133   -0.6372   -0.5271 C.ar    1  UNL1        0.0000
     26 C           6.8900    0.3393    0.1906 C.ar    1  UNL1        0.0000
     27 C           6.1401    1.2637    0.8947 C.ar    1  UNL1        0.0000
     28 N           4.7895    1.2714    0.9244 N.ar    1  UNL1        0.0000
     29 H           1.9193   -0.5558   -1.5153 H       1  UNL1        0.0000
     30 H           1.9450   -1.6346   -0.0715 H       1  UNL1        0.0000
     31 H           2.3005    2.0561    1.5546 H       1  UNL1        0.0000
     32 H          -4.8946   -3.2425   -2.2724 H       1  UNL1        0.0000
     33 H          -6.8463   -1.8889   -1.2242 H       1  UNL1        0.0000
     34 H          -5.5579   -0.4473    1.3894 H       1  UNL1        0.0000
     35 H          -5.5959    1.0491   -0.6135 H       1  UNL1        0.0000
     36 H          -4.0635    1.7555    1.4417 H       1  UNL1        0.0000
     37 H          -2.6396    3.0700    3.9648 H       1  UNL1        0.0000
     38 H          -2.6748    4.5713    1.9539 H       1  UNL1        0.0000
     39 H           0.2497    3.1922    2.4389 H       1  UNL1        0.0000
     40 H           4.2918   -1.4166   -1.0756 H       1  UNL1        0.0000
     41 H           6.7634   -1.3828   -1.0940 H       1  UNL1        0.0000
     42 H           7.9731    0.3796    0.2016 H       1  UNL1        0.0000
     43 H           6.6183    2.0489    1.4730 H       1  UNL1        0.0000
@<TRIPOS>BOND
     1     1     2    1
     2     2     3    2
     3     3     4    1
     4     4     5   ar
     5     5     6   ar
     6     6     7   ar
     7     7     8   ar
     8     8     9   ar
     9     9    10   ar
    10    10    11   ar
    11    11    12   ar
    12    12    13    1
    13    13    14    2
    14    14    15    1
    15    15    16    1
    16    16    17   ar
    17    17    18   ar
    18    18    19    2
    19    19    20    1
    20    20    21    1
    21    21    22    2
    22     2    23    1
    23    23    24   ar
    24    24    25   ar
    25    25    26   ar
    26    26    27   ar
    27    27    28   ar
    28     5     1    1
    29    17     6   ar
    30    22    18   ar
    31    28    23   ar
    32    22     4   ar
    33    11     7   ar
    34    16    12   ar
    35     1    29    1
    36     1    30    1
    37     3    31    1
    38    13    32    1
    39    14    33    1
    40    15    34    1
    41    15    35    1
    42    19    36    1
    43    20    37    1
    44    20    38    1
    45    21    39    1
    46    24    40    1
    47    25    41    1
    48    26    42    1
    49    27    43    1
