@<TRIPOS>MOLECULE
*****
 40 46 0 0 0
SMALL
GASTEIGER

@<TRIPOS>ATOM
      1 C           0.7883   -0.6236   -0.1220 C.3     1  UNL1        0.0000
      2 C           1.5369    0.6969   -0.1740 C.2     1  UNL1        0.0000
      3 C           0.6340    1.6938   -0.0946 C.2     1  UNL1        0.0000
      4 C          -0.7074    1.1599    0.0103 C.ar    1  UNL1        0.0000
      5 C          -0.6405   -0.1865   -0.0038 C.ar    1  UNL1        0.0000
      6 C          -1.8319   -1.0407    0.0866 C.ar    1  UNL1        0.0000
      7 C          -1.7462   -2.4633    0.0706 C.ar    1  UNL1        0.0000
      8 N          -0.6396   -3.2242   -0.0231 N.ar    1  UNL1        0.0000
      9 S          -1.1283   -4.8068    0.0060 S.2     1  UNL1        0.0000
     10 N          -2.7700   -4.6214    0.1390 N.ar    1  UNL1        0.0000
     11 C          -3.0023   -3.3003    0.1661 C.ar    1  UNL1        0.0000
     12 C          -4.2772   -2.7004    0.2724 C.ar    1  UNL1        0.0000
     13 C          -4.3092   -1.2943    0.2840 C.ar    1  UNL1        0.0000
     14 C          -3.1477   -0.4797    0.1960 C.ar    1  UNL1        0.0000
     15 C          -3.2355    1.0109    0.2127 C.ar    1  UNL1        0.0000
     16 C          -4.3629    1.7480    0.3081 C.2     1  UNL1        0.0000
     17 SI         -3.9840    3.5841    0.2897 Si      1  UNL1        0.0000
     18 C          -2.1772    3.1538    0.1416 C.2     1  UNL1        0.0000
     19 C          -1.9906    1.8192    0.1179 C.ar    1  UNL1        0.0000
     20 C           2.9433    0.8949   -0.2868 C.ar    1  UNL1        0.0000
     21 S           3.7133    2.4734   -0.3377 S.2     1  UNL1        0.0000
     22 C           5.3190    1.8375   -0.4731 C.ar    1  UNL1        0.0000
     23 C           5.2284    0.4949   -0.4756 C.ar    1  UNL1        0.0000
     24 N           6.2595   -0.3935   -0.5661 N.ar    1  UNL1        0.0000
     25 C           5.5760   -1.6063   -0.5195 C.ar    1  UNL1        0.0000
     26 C           4.1825   -1.4121   -0.4046 C.ar    1  UNL1        0.0000
     27 C           3.9521   -0.0093   -0.3755 C.ar    1  UNL1        0.0000
     28 H           0.9590   -1.1931   -1.0416 H       1  UNL1        0.0000
     29 H           1.1038   -1.2045    0.7511 H       1  UNL1        0.0000
     30 H           0.8326    2.7545   -0.1039 H       1  UNL1        0.0000
     31 H          -5.1790   -3.2972    0.3409 H       1  UNL1        0.0000
     32 H          -5.2900   -0.8282    0.3657 H       1  UNL1        0.0000
     33 H          -5.3832    1.4135    0.3879 H       1  UNL1        0.0000
     34 H          -4.5165    4.2513   -0.9224 H       1  UNL1        0.0000
     35 H          -4.3154    4.2349    1.5798 H       1  UNL1        0.0000
     36 H          -1.4224    3.9216    0.0860 H       1  UNL1        0.0000
     37 H           6.1923    2.4703   -0.5395 H       1  UNL1        0.0000
     38 H           7.2493   -0.1955   -0.6453 H       1  UNL1        0.0000
     39 H           6.1402   -2.5287   -0.5723 H       1  UNL1        0.0000
     40 H           3.4466   -2.2034   -0.3506 H       1  UNL1        0.0000
@<TRIPOS>BOND
     1     1     2    1
     2     2     3    2
     3     3     4    1
     4     4     5   ar
     5     5     6   ar
     6     6     7   ar
     7     7     8   ar
     8     8     9   ar
     9     9    10   ar
    10    10    11   ar
    11    11    12   ar
    12    12    13   ar
    13    13    14   ar
    14    14    15   ar
    15    15    16    2
    16    16    17    1
    17    17    18    1
    18    18    19    2
    19     2    20    1
    20    20    21   ar
    21    21    22   ar
    22    22    23   ar
    23    23    24   ar
    24    24    25   ar
    25    25    26   ar
    26    26    27   ar
    27     5     1    1
    28    14     6   ar
    29    19    15   ar
    30    27    20   ar
    31    19     4   ar
    32    27    23   ar
    33    11     7   ar
    34     1    28    1
    35     1    29    1
    36     3    30    1
    37    12    31    1
    38    13    32    1
    39    16    33    1
    40    17    34    1
    41    17    35    1
    42    18    36    1
    43    22    37    1
    44    24    38    1
    45    25    39    1
    46    26    40    1
