@<TRIPOS>MOLECULE
*****
 42 48 0 0 0
SMALL
GASTEIGER

@<TRIPOS>ATOM
      1 C           0.7903    0.0895   -0.0683 C.3     1  UNL1        0.0000
      2 C           1.7595   -0.5239    0.9514 C.2     1  UNL1        0.0000
      3 C           1.0749   -1.1462    1.9379 C.2     1  UNL1        0.0000
      4 C          -0.3318   -1.0002    1.6608 C.ar    1  UNL1        0.0000
      5 C          -0.5663   -0.2747    0.4807 C.ar    1  UNL1        0.0000
      6 C          -1.8563    0.0317   -0.0523 C.ar    1  UNL1        0.0000
      7 C          -1.9894    0.7666   -1.2446 C.ar    1  UNL1        0.0000
      8 C          -3.2735    1.0478   -1.7368 C.ar    1  UNL1        0.0000
      9 N          -3.6556    1.7391   -2.8659 N.ar    1  UNL1        0.0000
     10 C          -5.0211    1.7737   -2.9616 C.ar    1  UNL1        0.0000
     11 C          -5.5344    1.0957   -1.8802 C.ar    1  UNL1        0.0000
     12 C          -4.4396    0.6323   -1.0990 C.ar    1  UNL1        0.0000
     13 C          -4.3373   -0.1038    0.0944 C.ar    1  UNL1        0.0000
     14 C          -3.0524   -0.4035    0.6165 C.ar    1  UNL1        0.0000
     15 C          -2.7990   -1.1428    1.8195 C.ar    1  UNL1        0.0000
     16 C          -3.7664   -1.6700    2.6438 C.ar    1  UNL1        0.0000
     17 S          -3.0833   -2.4920    3.9930 S.2     1  UNL1        0.0000
     18 C          -1.4775   -2.1498    3.4865 C.ar    1  UNL1        0.0000
     19 C          -1.4713   -1.4281    2.3196 C.ar    1  UNL1        0.0000
     20 C           3.1986   -0.4756    0.9146 C.ar    1  UNL1        0.0000
     21 S           4.1757   -1.2351    2.1638 S.2     1  UNL1        0.0000
     22 C           5.6701   -0.7728    1.4623 C.ar    1  UNL1        0.0000
     23 C           5.4318   -0.0708    0.3261 C.ar    1  UNL1        0.0000
     24 SI          6.5090    0.7573   -0.9758 Si      1  UNL1        0.0000
     25 C           4.9104    1.2830   -1.8665 C.2     1  UNL1        0.0000
     26 C           3.8099    0.8552   -1.2093 C.2     1  UNL1        0.0000
     27 C           4.0573    0.1099   -0.0034 C.ar    1  UNL1        0.0000
     28 H           0.9338   -0.3595   -1.0562 H       1  UNL1        0.0000
     29 H           0.9059    1.1773   -0.1052 H       1  UNL1        0.0000
     30 H           1.4555   -1.6714    2.7983 H       1  UNL1        0.0000
     31 H          -1.1173    1.1179   -1.7873 H       1  UNL1        0.0000
     32 H          -3.0151    2.1585   -3.5254 H       1  UNL1        0.0000
     33 H          -5.5078    2.2754   -3.7871 H       1  UNL1        0.0000
     34 H          -6.5855    0.9468   -1.6701 H       1  UNL1        0.0000
     35 H          -5.2412   -0.4303    0.5960 H       1  UNL1        0.0000
     36 H          -4.8418   -1.6307    2.5488 H       1  UNL1        0.0000
     37 H          -0.6417   -2.4994    4.0763 H       1  UNL1        0.0000
     38 H           6.6087   -1.0445    1.9259 H       1  UNL1        0.0000
     39 H           7.2573    1.9398   -0.4818 H       1  UNL1        0.0000
     40 H           7.2946   -0.1896   -1.8053 H       1  UNL1        0.0000
     41 H           4.9479    1.8522   -2.7813 H       1  UNL1        0.0000
     42 H           2.8143    1.0651   -1.5751 H       1  UNL1        0.0000
@<TRIPOS>BOND
     1     1     2    1
     2     2     3    2
     3     3     4    1
     4     4     5   ar
     5     5     6   ar
     6     6     7   ar
     7     7     8   ar
     8     8     9   ar
     9     9    10   ar
    10    10    11   ar
    11    11    12   ar
    12    12    13   ar
    13    13    14   ar
    14    14    15   ar
    15    15    16   ar
    16    16    17   ar
    17    17    18   ar
    18    18    19   ar
    19     2    20    1
    20    20    21   ar
    21    21    22   ar
    22    22    23   ar
    23    23    24    1
    24    24    25    1
    25    25    26    2
    26    26    27    1
    27     5     1    1
    28    14     6   ar
    29    19    15   ar
    30    27    20   ar
    31    19     4   ar
    32    27    23   ar
    33    12     8   ar
    34     1    28    1
    35     1    29    1
    36     3    30    1
    37     7    31    1
    38     9    32    1
    39    10    33    1
    40    11    34    1
    41    13    35    1
    42    16    36    1
    43    18    37    1
    44    22    38    1
    45    24    39    1
    46    24    40    1
    47    25    41    1
    48    26    42    1
