@<TRIPOS>MOLECULE
*****
 45 51 0 0 0
SMALL
GASTEIGER

@<TRIPOS>ATOM
      1 C          -0.7406    1.3925    0.4558 C.3     1  UNL1        0.0000
      2 C          -2.0340    0.5957    0.4143 C.2     1  UNL1        0.0000
      3 C          -1.7791   -0.6876    0.0954 C.2     1  UNL1        0.0000
      4 C          -0.3406   -0.8728   -0.1018 C.ar    1  UNL1        0.0000
      5 C           0.2919    0.3567    0.1093 C.ar    1  UNL1        0.0000
      6 C           1.6715    0.5102   -0.0046 C.ar    1  UNL1        0.0000
      7 C           2.2769    1.7659    0.2153 C.ar    1  UNL1        0.0000
      8 C           3.6526    1.8995    0.0974 C.ar    1  UNL1        0.0000
      9 SI          4.7291    3.4175    0.3261 Si      1  UNL1        0.0000
     10 C           6.2187    2.3456   -0.0779 C.2     1  UNL1        0.0000
     11 C           5.8900    1.0660   -0.3332 C.2     1  UNL1        0.0000
     12 C           4.4462    0.7923   -0.2397 C.ar    1  UNL1        0.0000
     13 C           3.8544   -0.4491   -0.4579 C.ar    1  UNL1        0.0000
     14 C           2.4498   -0.6363   -0.3490 C.ar    1  UNL1        0.0000
     15 C           1.7947   -1.9124   -0.5682 C.ar    1  UNL1        0.0000
     16 C           2.4900   -3.1010   -0.9132 C.ar    1  UNL1        0.0000
     17 C           1.8431   -4.3229   -1.1210 C.ar    1  UNL1        0.0000
     18 C           0.4681   -4.4048   -0.9913 C.ar    1  UNL1        0.0000
     19 C          -0.2553   -3.2646   -0.6543 C.ar    1  UNL1        0.0000
     20 C           0.3815   -2.0209   -0.4405 C.ar    1  UNL1        0.0000
     21 C          -3.3603    1.0618    0.6632 C.ar    1  UNL1        0.0000
     22 S          -3.6284    2.7540    1.0771 S.2     1  UNL1        0.0000
     23 C          -5.3428    2.5877    1.2240 C.ar    1  UNL1        0.0000
     24 C          -5.6541    1.3045    0.9656 C.ar    1  UNL1        0.0000
     25 N          -6.9046    0.7589    0.9762 N.ar    1  UNL1        0.0000
     26 C          -6.6255   -0.5631    0.6453 C.ar    1  UNL1        0.0000
     27 C          -5.2426   -0.7659    0.4502 C.ar    1  UNL1        0.0000
     28 C          -4.5897    0.4823    0.6639 C.ar    1  UNL1        0.0000
     29 H          -0.7517    2.1931   -0.2910 H       1  UNL1        0.0000
     30 H          -0.5631    1.7958    1.4582 H       1  UNL1        0.0000
     31 H          -2.4918   -1.4868   -0.0092 H       1  UNL1        0.0000
     32 H           1.6763    2.6336    0.4772 H       1  UNL1        0.0000
     33 H           4.7535    3.9048    1.7280 H       1  UNL1        0.0000
     34 H           4.4912    4.4576   -0.7058 H       1  UNL1        0.0000
     35 H           7.2131    2.7642   -0.0901 H       1  UNL1        0.0000
     36 H           6.5987    0.2889   -0.5861 H       1  UNL1        0.0000
     37 H           4.5085   -1.2752   -0.7160 H       1  UNL1        0.0000
     38 H           3.5699   -3.1016   -1.0298 H       1  UNL1        0.0000
     39 H           2.4209   -5.2051   -1.3837 H       1  UNL1        0.0000
     40 H          -0.0436   -5.3497   -1.1508 H       1  UNL1        0.0000
     41 H          -1.3340   -3.3592   -0.5595 H       1  UNL1        0.0000
     42 H          -5.9892    3.4145    1.4817 H       1  UNL1        0.0000
     43 H          -7.7844    1.2188    1.1756 H       1  UNL1        0.0000
     44 H          -7.4420   -1.2702    0.5724 H       1  UNL1        0.0000
     45 H          -4.7934   -1.7130    0.1863 H       1  UNL1        0.0000
@<TRIPOS>BOND
     1     1     2    1
     2     2     3    2
     3     3     4    1
     4     4     5   ar
     5     5     6   ar
     6     6     7   ar
     7     7     8   ar
     8     8     9    1
     9     9    10    1
    10    10    11    2
    11    11    12    1
    12    12    13   ar
    13    13    14   ar
    14    14    15   ar
    15    15    16   ar
    16    16    17   ar
    17    17    18   ar
    18    18    19   ar
    19    19    20   ar
    20     2    21    1
    21    21    22   ar
    22    22    23   ar
    23    23    24   ar
    24    24    25   ar
    25    25    26   ar
    26    26    27   ar
    27    27    28   ar
    28     5     1    1
    29    14     6   ar
    30    20    15   ar
    31    28    21   ar
    32    20     4   ar
    33    28    24   ar
    34    12     8   ar
    35     1    29    1
    36     1    30    1
    37     3    31    1
    38     7    32    1
    39     9    33    1
    40     9    34    1
    41    10    35    1
    42    11    36    1
    43    13    37    1
    44    16    38    1
    45    17    39    1
    46    18    40    1
    47    19    41    1
    48    23    42    1
    49    25    43    1
    50    26    44    1
    51    27    45    1
