@<TRIPOS>MOLECULE
*****
 44 50 0 0 0
SMALL
GASTEIGER

@<TRIPOS>ATOM
      1 C           2.0745    0.4984    0.1319 C.3     1  UNL1        0.0000
      2 C           3.4756   -0.1236   -0.0010 C.2     1  UNL1        0.0000
      3 C           3.3992   -1.4378   -0.3057 C.2     1  UNL1        0.0000
      4 C           2.0039   -1.7719   -0.3940 C.ar    1  UNL1        0.0000
      5 C           1.1621   -0.6698   -0.1457 C.ar    1  UNL1        0.0000
      6 C          -0.2749   -0.7037   -0.1650 C.ar    1  UNL1        0.0000
      7 C          -1.0505    0.4398    0.0933 C.ar    1  UNL1        0.0000
      8 C          -2.4577    0.4030    0.0736 C.ar    1  UNL1        0.0000
      9 C          -3.1315   -0.8142   -0.2134 C.ar    1  UNL1        0.0000
     10 C          -4.6117   -0.8882   -0.2423 C.ar    1  UNL1        0.0000
     11 C          -5.3810    0.1865    0.0002 C.ar    1  UNL1        0.0000
     12 C          -4.7695    1.4613    0.2999 C.ar    1  UNL1        0.0000
     13 C          -5.4592    2.5892    0.5553 C.2     1  UNL1        0.0000
     14 SI         -4.3044    4.0167    0.8947 Si      1  UNL1        0.0000
     15 C          -2.8647    2.8436    0.6348 C.2     1  UNL1        0.0000
     16 C          -3.2962    1.5981    0.3433 C.ar    1  UNL1        0.0000
     17 C          -2.3927   -1.9717   -0.4753 C.ar    1  UNL1        0.0000
     18 C          -0.9827   -1.9229   -0.4528 C.ar    1  UNL1        0.0000
     19 C          -0.1047   -3.0150   -0.6985 C.ar    1  UNL1        0.0000
     20 C          -0.4044   -4.3179   -1.0024 C.ar    1  UNL1        0.0000
     21 O           0.7527   -5.0357   -1.1593 O.2     1  UNL1        0.0000
     22 C           1.8038   -4.1818   -0.9533 C.ar    1  UNL1        0.0000
     23 C           1.3208   -2.9353   -0.6687 C.ar    1  UNL1        0.0000
     24 C           4.7195    0.5709    0.1697 C.ar    1  UNL1        0.0000
     25 C           4.8932    1.9124    0.4840 C.ar    1  UNL1        0.0000
     26 C           6.2595    2.3043    0.5847 C.ar    1  UNL1        0.0000
     27 C           7.1098    1.2528    0.3449 C.ar    1  UNL1        0.0000
     28 S           6.2630   -0.1872    0.0031 S.2     1  UNL1        0.0000
     29 H           1.9317    1.2886   -0.6121 H       1  UNL1        0.0000
     30 H           1.9177    0.8819    1.1452 H       1  UNL1        0.0000
     31 H           4.1958   -2.1461   -0.4631 H       1  UNL1        0.0000
     32 H          -0.5494    1.3776    0.3142 H       1  UNL1        0.0000
     33 H          -5.0703   -1.8454   -0.4675 H       1  UNL1        0.0000
     34 H          -6.4629    0.1125   -0.0256 H       1  UNL1        0.0000
     35 H          -6.5302    2.7120    0.5751 H       1  UNL1        0.0000
     36 H          -4.3695    5.0656   -0.1513 H       1  UNL1        0.0000
     37 H          -4.3890    4.5001    2.2938 H       1  UNL1        0.0000
     38 H          -1.8527    3.1997    0.7253 H       1  UNL1        0.0000
     39 H          -2.9001   -2.9063   -0.6956 H       1  UNL1        0.0000
     40 H          -1.3163   -4.8808   -1.1399 H       1  UNL1        0.0000
     41 H           2.7870   -4.6202   -1.0469 H       1  UNL1        0.0000
     42 H           4.0671    2.5960    0.6380 H       1  UNL1        0.0000
     43 H           6.5981    3.3056    0.8207 H       1  UNL1        0.0000
     44 H           8.1911    1.2591    0.3536 H       1  UNL1        0.0000
@<TRIPOS>BOND
     1     1     2    1
     2     2     3    2
     3     3     4    1
     4     4     5   ar
     5     5     6   ar
     6     6     7   ar
     7     7     8   ar
     8     8     9   ar
     9     9    10   ar
    10    10    11   ar
    11    11    12   ar
    12    12    13    2
    13    13    14    1
    14    14    15    1
    15    15    16    2
    16     9    17   ar
    17    17    18   ar
    18    18    19   ar
    19    19    20   ar
    20    20    21   ar
    21    21    22   ar
    22    22    23   ar
    23     2    24    1
    24    24    25   ar
    25    25    26   ar
    26    26    27   ar
    27    27    28   ar
    28     5     1    1
    29    18     6   ar
    30    23    19   ar
    31    28    24   ar
    32    23     4   ar
    33    16     8   ar
    34    16    12   ar
    35     1    29    1
    36     1    30    1
    37     3    31    1
    38     7    32    1
    39    10    33    1
    40    11    34    1
    41    13    35    1
    42    14    36    1
    43    14    37    1
    44    15    38    1
    45    17    39    1
    46    20    40    1
    47    22    41    1
    48    25    42    1
    49    26    43    1
    50    27    44    1
