@<TRIPOS>MOLECULE
*****
 47 54 0 0 0
SMALL
GASTEIGER

@<TRIPOS>ATOM
      1 C           1.3495   -0.1373    0.0871 C.3     1  UNL1        0.0000
      2 C           2.6663   -0.0710   -0.6996 C.2     1  UNL1        0.0000
      3 C           2.4208    0.0905   -2.0195 C.2     1  UNL1        0.0000
      4 C           0.9920    0.1410   -2.2007 C.ar    1  UNL1        0.0000
      5 C           0.3002    0.0110   -0.9854 C.ar    1  UNL1        0.0000
      6 C          -1.1219    0.0234   -0.8489 C.ar    1  UNL1        0.0000
      7 C          -1.7351   -0.1124    0.4032 C.ar    1  UNL1        0.0000
      8 C          -3.1465   -0.0983    0.5223 C.ar    1  UNL1        0.0000
      9 C          -3.9008   -0.2238    1.7106 C.ar    1  UNL1        0.0000
     10 C          -3.4550   -0.3849    2.9975 C.ar    1  UNL1        0.0000
     11 O          -4.5229   -0.4645    3.8509 O.2     1  UNL1        0.0000
     12 C          -5.6609   -0.3529    3.0988 C.ar    1  UNL1        0.0000
     13 C          -5.3221   -0.2037    1.7810 C.ar    1  UNL1        0.0000
     14 C          -6.1888   -0.0598    0.7106 C.ar    1  UNL1        0.0000
     15 C          -5.4560    0.0683   -0.4959 C.ar    1  UNL1        0.0000
     16 C          -4.0102    0.0529   -0.6094 C.ar    1  UNL1        0.0000
     17 C          -3.3943    0.1885   -1.8585 C.ar    1  UNL1        0.0000
     18 C          -1.9792    0.1764   -1.9958 C.ar    1  UNL1        0.0000
     19 C          -1.2568    0.3079   -3.2287 C.ar    1  UNL1        0.0000
     20 C          -1.8305    0.4664   -4.4694 C.ar    1  UNL1        0.0000
     21 S          -0.6479    0.5900   -5.7141 S.2     1  UNL1        0.0000
     22 C           0.6516    0.4321   -4.6016 C.ar    1  UNL1        0.0000
     23 C           0.1883    0.2895   -3.3180 C.ar    1  UNL1        0.0000
     24 C           3.9981   -0.1617   -0.1664 C.ar    1  UNL1        0.0000
     25 S           5.4225   -0.0708   -1.1858 S.2     1  UNL1        0.0000
     26 C           6.5265   -0.2482    0.1183 C.ar    1  UNL1        0.0000
     27 C           5.8558   -0.3742    1.3001 C.ar    1  UNL1        0.0000
     28 C           6.3605   -0.5421    2.6291 C.2     1  UNL1        0.0000
     29 C           5.4158   -0.6360    3.5888 C.2     1  UNL1        0.0000
     30 SI          3.6702   -0.5114    2.8454 Si      1  UNL1        0.0000
     31 C           4.4428   -0.3237    1.1238 C.ar    1  UNL1        0.0000
     32 H           1.2467   -1.1046    0.5889 H       1  UNL1        0.0000
     33 H           1.2832    0.6893    0.8013 H       1  UNL1        0.0000
     34 H           3.1237    0.1724   -2.8322 H       1  UNL1        0.0000
     35 H          -1.1331   -0.2306    1.2996 H       1  UNL1        0.0000
     36 H          -2.4850   -0.4598    3.4669 H       1  UNL1        0.0000
     37 H          -6.5896   -0.3995    3.6495 H       1  UNL1        0.0000
     38 H          -7.2679   -0.0441    0.7598 H       1  UNL1        0.0000
     39 H          -6.0391    0.1883   -1.4119 H       1  UNL1        0.0000
     40 H          -4.0155    0.3056   -2.7428 H       1  UNL1        0.0000
     41 H          -2.8749    0.5194   -4.7400 H       1  UNL1        0.0000
     42 H           1.6714    0.4540   -4.9598 H       1  UNL1        0.0000
     43 H           7.5919   -0.2490   -0.0635 H       1  UNL1        0.0000
     44 H           7.4234   -0.5891    2.8373 H       1  UNL1        0.0000
     45 H           5.5664   -0.7647    4.6484 H       1  UNL1        0.0000
     46 H           2.9073   -1.7726    3.0177 H       1  UNL1        0.0000
     47 H           2.9594    0.7053    3.3112 H       1  UNL1        0.0000
@<TRIPOS>BOND
     1     1     2    1
     2     2     3    2
     3     3     4    1
     4     4     5   ar
     5     5     6   ar
     6     6     7   ar
     7     7     8   ar
     8     8     9   ar
     9     9    10   ar
    10    10    11   ar
    11    11    12   ar
    12    12    13   ar
    13    13    14   ar
    14    14    15   ar
    15    15    16   ar
    16    16    17   ar
    17    17    18   ar
    18    18    19   ar
    19    19    20   ar
    20    20    21   ar
    21    21    22   ar
    22    22    23   ar
    23     2    24    1
    24    24    25   ar
    25    25    26   ar
    26    26    27   ar
    27    27    28    1
    28    28    29    2
    29    29    30    1
    30    30    31    1
    31     5     1    1
    32    18     6   ar
    33    23    19   ar
    34    31    24   ar
    35    23     4   ar
    36    31    27   ar
    37    16     8   ar
    38    13     9   ar
    39     1    32    1
    40     1    33    1
    41     3    34    1
    42     7    35    1
    43    10    36    1
    44    12    37    1
    45    14    38    1
    46    15    39    1
    47    17    40    1
    48    20    41    1
    49    22    42    1
    50    26    43    1
    51    28    44    1
    52    29    45    1
    53    30    46    1
    54    30    47    1
