@<TRIPOS>MOLECULE
*****
 43 49 0 0 0
SMALL
GASTEIGER

@<TRIPOS>ATOM
      1 C           1.4366    0.8987   -0.1759 C.3     1  UNL1        0.0000
      2 C           2.7704    0.1421   -0.2333 C.2     1  UNL1        0.0000
      3 C           2.5935   -1.1913   -0.1304 C.2     1  UNL1        0.0000
      4 C           1.1784   -1.4153   -0.0012 C.ar    1  UNL1        0.0000
      5 C           0.4348   -0.2193   -0.0207 C.ar    1  UNL1        0.0000
      6 C          -0.9934   -0.1363    0.0892 C.ar    1  UNL1        0.0000
      7 C          -1.6680    1.0912    0.0620 C.ar    1  UNL1        0.0000
      8 C          -3.0786    1.1560    0.1717 C.ar    1  UNL1        0.0000
      9 C          -3.7938    2.4016    0.1465 C.ar    1  UNL1        0.0000
     10 N          -3.2665    3.6341    0.0216 N.ar    1  UNL1        0.0000
     11 S          -4.5359    4.7019    0.0530 S.2     1  UNL1        0.0000
     12 N          -5.8161    3.6603    0.2261 N.ar    1  UNL1        0.0000
     13 C          -5.2963    2.4240    0.2665 C.ar    1  UNL1        0.0000
     14 C          -6.0350    1.2283    0.4060 C.ar    1  UNL1        0.0000
     15 C          -5.2884    0.0353    0.4252 C.ar    1  UNL1        0.0000
     16 C          -3.8716   -0.0199    0.3142 C.ar    1  UNL1        0.0000
     17 C          -3.2094   -1.2518    0.3428 C.ar    1  UNL1        0.0000
     18 C          -1.7990   -1.3201    0.2332 C.ar    1  UNL1        0.0000
     19 C          -1.0185   -2.5128    0.2496 C.ar    1  UNL1        0.0000
     20 C          -1.4475   -3.8125    0.3709 C.ar    1  UNL1        0.0000
     21 N          -0.3271   -4.6205    0.3342 N.ar    1  UNL1        0.0000
     22 C           0.8131   -3.8572    0.1911 C.ar    1  UNL1        0.0000
     23 C           0.4071   -2.5501    0.1368 C.ar    1  UNL1        0.0000
     24 C           4.0153    0.8605   -0.3814 C.2     1  UNL1        0.0000
     25 C           4.1798    2.1994   -0.4813 C.2     1  UNL1        0.0000
     26 C           5.5485    2.6736   -0.6238 C.2     1  UNL1        0.0000
     27 C           6.4916    1.7162   -0.6393 C.2     1  UNL1        0.0000
     28 SI          5.7264    0.0138   -0.4670 Si      1  UNL1        0.0000
     29 H           1.4020    1.5677    0.6902 H       1  UNL1        0.0000
     30 H           1.2571    1.4484   -1.1056 H       1  UNL1        0.0000
     31 H           3.3237   -1.9821   -0.1367 H       1  UNL1        0.0000
     32 H          -1.1095    2.0194   -0.0451 H       1  UNL1        0.0000
     33 H          -7.1147    1.2351    0.4930 H       1  UNL1        0.0000
     34 H          -5.8452   -0.8977    0.5325 H       1  UNL1        0.0000
     35 H          -3.7762   -2.1733    0.4501 H       1  UNL1        0.0000
     36 H          -2.4295   -4.2509    0.4796 H       1  UNL1        0.0000
     37 H          -0.3411   -5.6298    0.4026 H       1  UNL1        0.0000
     38 H           1.7881   -4.3220    0.1432 H       1  UNL1        0.0000
     39 H           3.3709    2.9198   -0.4615 H       1  UNL1        0.0000
     40 H           5.7629    3.7320   -0.7094 H       1  UNL1        0.0000
     41 H           7.5567    1.8548   -0.7353 H       1  UNL1        0.0000
     42 H           6.1046   -0.6454    0.8087 H       1  UNL1        0.0000
     43 H           5.8997   -0.8063   -1.6927 H       1  UNL1        0.0000
@<TRIPOS>BOND
     1     1     2    1
     2     2     3    2
     3     3     4    1
     4     4     5   ar
     5     5     6   ar
     6     6     7   ar
     7     7     8   ar
     8     8     9   ar
     9     9    10   ar
    10    10    11   ar
    11    11    12   ar
    12    12    13   ar
    13    13    14   ar
    14    14    15   ar
    15    15    16   ar
    16    16    17   ar
    17    17    18   ar
    18    18    19   ar
    19    19    20   ar
    20    20    21   ar
    21    21    22   ar
    22    22    23   ar
    23     2    24    1
    24    24    25    2
    25    25    26    1
    26    26    27    2
    27    27    28    1
    28     5     1    1
    29    18     6   ar
    30    23    19   ar
    31    28    24    1
    32    23     4   ar
    33    16     8   ar
    34    13     9   ar
    35     1    29    1
    36     1    30    1
    37     3    31    1
    38     7    32    1
    39    14    33    1
    40    15    34    1
    41    17    35    1
    42    20    36    1
    43    21    37    1
    44    22    38    1
    45    25    39    1
    46    26    40    1
    47    27    41    1
    48    28    42    1
    49    28    43    1
