@<TRIPOS>MOLECULE
*****
 45 51 0 0 0
SMALL
GASTEIGER

@<TRIPOS>ATOM
      1 SI          2.4091    0.6399    0.7676 Si      1  UNL1        0.0000
      2 C           1.1383   -0.7073    0.3832 C.2     1  UNL1        0.0000
      3 C           1.7536   -1.8835    0.1358 C.2     1  UNL1        0.0000
      4 C           3.2092   -1.8594    0.2091 C.2     1  UNL1        0.0000
      5 C           3.7440   -0.6602    0.5108 C.2     1  UNL1        0.0000
      6 C           5.1177   -0.4110    0.6711 C.ar    1  UNL1        0.0000
      7 S           6.0561   -1.0770    1.9621 S.2     1  UNL1        0.0000
      8 C           7.5067   -0.3114    1.4382 C.ar    1  UNL1        0.0000
      9 C           7.2250    0.3923    0.3199 C.ar    1  UNL1        0.0000
     10 C           8.0111    1.1958   -0.5399 C.ar    1  UNL1        0.0000
     11 C           7.2687    1.7249   -1.6016 C.ar    1  UNL1        0.0000
     12 S           5.5641    1.2955   -1.6526 S.2     1  UNL1        0.0000
     13 C           5.9088    0.3599   -0.1425 C.ar    1  UNL1        0.0000
     14 C          -0.2657   -0.5275    0.3950 C.ar    1  UNL1        0.0000
     15 S          -1.0332    0.9580   -0.1518 S.2     1  UNL1        0.0000
     16 C          -2.6355    0.3887    0.1290 C.ar    1  UNL1        0.0000
     17 C          -3.8088    1.1828   -0.1365 C.ar    1  UNL1        0.0000
     18 C          -4.1609    2.3356    0.6055 C.ar    1  UNL1        0.0000
     19 C          -5.3391    3.1121    0.3597 C.ar    1  UNL1        0.0000
     20 C          -6.2816    2.8180   -0.6495 C.ar    1  UNL1        0.0000
     21 C          -5.9257    1.6853   -1.3825 C.ar    1  UNL1        0.0000
     22 C          -6.6875    1.2122   -2.4219 C.ar    1  UNL1        0.0000
     23 S          -5.9769   -0.1836   -3.1290 S.2     1  UNL1        0.0000
     24 C          -4.6427   -0.1479   -2.0438 C.ar    1  UNL1        0.0000
     25 C          -4.7415    0.8922   -1.1477 C.ar    1  UNL1        0.0000
     26 C          -2.5606   -0.8614    0.6271 C.ar    1  UNL1        0.0000
     27 N          -3.5932   -1.6723    1.0058 N.ar    1  UNL1        0.0000
     28 C          -2.9076   -2.8081    1.4278 C.ar    1  UNL1        0.0000
     29 C          -1.5116   -2.6487    1.2983 C.ar    1  UNL1        0.0000
     30 C          -1.2809   -1.3522    0.7626 C.ar    1  UNL1        0.0000
     31 H           2.3344    1.1083    2.1771 H       1  UNL1        0.0000
     32 H           2.4369    1.7149   -0.2583 H       1  UNL1        0.0000
     33 H           1.2406   -2.8065   -0.1070 H       1  UNL1        0.0000
     34 H           3.7837   -2.7613    0.0336 H       1  UNL1        0.0000
     35 H           8.4382   -0.4355    1.9718 H       1  UNL1        0.0000
     36 H           9.0689    1.3928   -0.4158 H       1  UNL1        0.0000
     37 H           7.6362    2.3654   -2.3919 H       1  UNL1        0.0000
     38 H          -3.5052    2.6554    1.4169 H       1  UNL1        0.0000
     39 H          -5.5155    3.9833    0.9922 H       1  UNL1        0.0000
     40 H          -7.1646    3.4204   -0.8187 H       1  UNL1        0.0000
     41 H          -7.6167    1.6011   -2.8152 H       1  UNL1        0.0000
     42 H          -3.8664   -0.8956   -2.1378 H       1  UNL1        0.0000
     43 H          -4.5854   -1.4677    0.9741 H       1  UNL1        0.0000
     44 H          -3.4728   -3.6537    1.7984 H       1  UNL1        0.0000
     45 H          -0.7719   -3.3893    1.5715 H       1  UNL1        0.0000
@<TRIPOS>BOND
     1     1     2    1
     2     2     3    2
     3     3     4    1
     4     4     5    2
     5     5     6    1
     6     6     7   ar
     7     7     8   ar
     8     8     9   ar
     9     9    10   ar
    10    10    11   ar
    11    11    12   ar
    12    12    13   ar
    13     2    14    1
    14    14    15   ar
    15    15    16   ar
    16    16    17    1
    17    17    18   ar
    18    18    19   ar
    19    19    20   ar
    20    20    21   ar
    21    21    22   ar
    22    22    23   ar
    23    23    24   ar
    24    24    25   ar
    25    16    26   ar
    26    26    27   ar
    27    27    28   ar
    28    28    29   ar
    29    29    30   ar
    30     5     1    1
    31    13     6   ar
    32    30    14   ar
    33    13     9   ar
    34    25    17   ar
    35    30    26   ar
    36    25    21   ar
    37     1    31    1
    38     1    32    1
    39     3    33    1
    40     4    34    1
    41     8    35    1
    42    10    36    1
    43    11    37    1
    44    18    38    1
    45    19    39    1
    46    20    40    1
    47    22    41    1
    48    24    42    1
    49    27    43    1
    50    28    44    1
    51    29    45    1
