@<TRIPOS>MOLECULE
*****
 39 44 0 0 0
SMALL
GASTEIGER

@<TRIPOS>ATOM
      1 C           0.9808   -1.0568    0.0544 C.3     1  UNL1        0.0008
      2 C           2.2258   -0.1755    0.1218 C.2     1  UNL1       -0.0171
      3 C           1.9326    1.1402    0.0859 C.2     1  UNL1       -0.0482
      4 C           0.5000    1.2319   -0.0062 C.ar    1  UNL1       -0.0115
      5 C          -0.1275   -0.0315   -0.0294 C.ar    1  UNL1       -0.0274
      6 C          -1.5424   -0.2486   -0.1164 C.ar    1  UNL1       -0.0097
      7 C          -2.0777   -1.5475   -0.1333 C.ar    1  UNL1       -0.0108
      8 C          -3.4651   -1.6833   -0.2196 C.ar    1  UNL1        0.1354
      9 O          -4.1343   -2.8708   -0.2464 O.2     1  UNL1       -0.4629
     10 C          -5.4577   -2.5790   -0.3343 C.ar    1  UNL1        0.0931
     11 C          -5.6523   -1.2177   -0.3645 C.ar    1  UNL1       -0.0161
     12 C          -4.3631   -0.6259   -0.2905 C.ar    1  UNL1        0.0207
     13 C          -3.8646    0.6855   -0.2761 C.ar    1  UNL1       -0.0426
     14 C          -2.4599    0.8641   -0.1893 C.ar    1  UNL1       -0.0077
     15 C          -1.7955    2.1244   -0.1637 C.ar    1  UNL1        0.0077
     16 C          -2.3479    3.3816   -0.2153 C.ar    1  UNL1        0.0100
     17 N          -1.3088    4.2903   -0.1613 N.ar    1  UNL1       -0.3659
     18 C          -0.0985    3.6338   -0.0758 C.ar    1  UNL1        0.0100
     19 C          -0.3780    2.2927   -0.0759 C.ar    1  UNL1        0.0074
     20 C           3.5485   -0.8039    0.2139 C.ar    1  UNL1        0.0673
     21 C           4.7294   -0.0680    0.2794 C.ar    1  UNL1       -0.0360
     22 C           5.9469   -0.7420    0.3654 C.ar    1  UNL1       -0.0583
     23 C           5.9573   -2.1296    0.3840 C.ar    1  UNL1       -0.0436
     24 C           4.7431   -2.7877    0.3155 C.ar    1  UNL1        0.0282
     25 N           3.5499   -2.1591    0.2316 N.ar    1  UNL1       -0.2553
     26 H           0.8742   -1.6618    0.9607 H       1  UNL1        0.0362
     27 H           0.9886   -1.6855   -0.8420 H       1  UNL1        0.0362
     28 H           2.5944    1.9877    0.1167 H       1  UNL1        0.0627
     29 H          -1.4539   -2.4323   -0.0820 H       1  UNL1        0.0661
     30 H          -6.1213   -3.4318   -0.3652 H       1  UNL1        0.1029
     31 H          -6.6047   -0.7122   -0.4316 H       1  UNL1        0.0655
     32 H          -4.5373    1.5338   -0.3299 H       1  UNL1        0.0631
     33 H          -3.3695    3.7279   -0.2847 H       1  UNL1        0.0813
     34 H          -1.4202    5.2957   -0.1816 H       1  UNL1        0.1648
     35 H           0.8289    4.1870   -0.0242 H       1  UNL1        0.0813
     36 H           4.7227    1.0157    0.2649 H       1  UNL1        0.0639
     37 H           6.8778   -0.1848    0.4173 H       1  UNL1        0.0619
     38 H           6.8862   -2.6842    0.4502 H       1  UNL1        0.0633
     39 H           4.6930   -3.8727    0.3264 H       1  UNL1        0.0830
@<TRIPOS>BOND
     1     1     2    1
     2     2     3    2
     3     3     4    1
     4     4     5   ar
     5     5     6   ar
     6     6     7   ar
     7     7     8   ar
     8     8     9   ar
     9     9    10   ar
    10    10    11   ar
    11    11    12   ar
    12    12    13   ar
    13    13    14   ar
    14    14    15   ar
    15    15    16   ar
    16    16    17   ar
    17    17    18   ar
    18    18    19   ar
    19     2    20    1
    20    20    21   ar
    21    21    22   ar
    22    22    23   ar
    23    23    24   ar
    24    24    25   ar
    25     5     1    1
    26    14     6   ar
    27    19    15   ar
    28    25    20   ar
    29    19     4   ar
    30    12     8   ar
    31     1    26    1
    32     1    27    1
    33     3    28    1
    34     7    29    1
    35    10    30    1
    36    11    31    1
    37    13    32    1
    38    16    33    1
    39    17    34    1
    40    18    35    1
    41    21    36    1
    42    22    37    1
    43    23    38    1
    44    24    39    1
