@<TRIPOS>MOLECULE
*****
 40 45 0 0 0
SMALL
GASTEIGER

@<TRIPOS>ATOM
      1 C          -1.4236   -0.8147   -0.4645 C.3     1  UNL1        0.0000
      2 C          -2.5433    0.0159    0.1382 C.2     1  UNL1        0.0000
      3 C          -2.0772    1.0662    0.8419 C.2     1  UNL1        0.0000
      4 C          -0.6401    1.0134    0.7611 C.ar    1  UNL1        0.0000
      5 C          -0.1865   -0.0767    0.0016 C.ar    1  UNL1        0.0000
      6 C           1.1837   -0.3848   -0.2518 C.ar    1  UNL1        0.0000
      7 C           1.4933   -1.5154   -1.0344 C.ar    1  UNL1        0.0000
      8 C           2.8063   -1.8859   -1.3288 C.ar    1  UNL1        0.0000
      9 C           3.8529   -1.1227   -0.8399 C.ar    1  UNL1        0.0000
     10 C           5.2665   -1.4447   -1.1045 C.2     1  UNL1        0.0000
     11 C           6.1347   -0.5869   -0.5454 C.2     1  UNL1        0.0000
     12 SI          5.2811    0.7669    0.4068 Si      1  UNL1        0.0000
     13 C           3.6029    0.0295   -0.0444 C.ar    1  UNL1        0.0000
     14 C           2.2692    0.4288    0.2705 C.ar    1  UNL1        0.0000
     15 C           1.7708    1.5496    1.0525 C.ar    1  UNL1        0.0000
     16 C           2.5299    2.5082    1.6844 C.ar    1  UNL1        0.0000
     17 S           1.5793    3.6795    2.5150 S.2     1  UNL1        0.0000
     18 C           0.1166    2.9260    2.0454 C.ar    1  UNL1        0.0000
     19 C           0.3586    1.8143    1.2776 C.ar    1  UNL1        0.0000
     20 C          -3.9630   -0.3119   -0.0420 C.ar    1  UNL1        0.0000
     21 C          -4.3828   -1.4144   -0.7829 C.ar    1  UNL1        0.0000
     22 C          -5.7481   -1.6664   -0.9130 C.ar    1  UNL1        0.0000
     23 C          -6.6595   -0.8157   -0.3032 C.ar    1  UNL1        0.0000
     24 C          -6.1646    0.2570    0.4150 C.ar    1  UNL1        0.0000
     25 N          -4.8478    0.5236    0.5567 N.ar    1  UNL1        0.0000
     26 H          -1.4321   -1.8350   -0.0673 H       1  UNL1        0.0000
     27 H          -1.4784   -0.8158   -1.5580 H       1  UNL1        0.0000
     28 H          -2.6552    1.8088    1.3676 H       1  UNL1        0.0000
     29 H           0.7000   -2.1417   -1.4378 H       1  UNL1        0.0000
     30 H           2.9949   -2.7662   -1.9366 H       1  UNL1        0.0000
     31 H           5.5508   -2.3024   -1.6997 H       1  UNL1        0.0000
     32 H           7.2106   -0.6350   -0.6121 H       1  UNL1        0.0000
     33 H           5.5645    0.6971    1.8621 H       1  UNL1        0.0000
     34 H           5.4996    2.1048   -0.1974 H       1  UNL1        0.0000
     35 H           3.5962    2.6362    1.7388 H       1  UNL1        0.0000
     36 H          -0.8307    3.3423    2.3596 H       1  UNL1        0.0000
     37 H          -3.6752   -2.0818   -1.2611 H       1  UNL1        0.0000
     38 H          -6.0947   -2.5212   -1.4868 H       1  UNL1        0.0000
     39 H          -7.7273   -0.9833   -0.3849 H       1  UNL1        0.0000
     40 H          -6.8323    0.9544    0.9125 H       1  UNL1        0.0000
@<TRIPOS>BOND
     1     1     2    1
     2     2     3    2
     3     3     4    1
     4     4     5   ar
     5     5     6   ar
     6     6     7   ar
     7     7     8   ar
     8     8     9   ar
     9     9    10    1
    10    10    11    2
    11    11    12    1
    12    12    13    1
    13    13    14   ar
    14    14    15   ar
    15    15    16   ar
    16    16    17   ar
    17    17    18   ar
    18    18    19   ar
    19     2    20    1
    20    20    21   ar
    21    21    22   ar
    22    22    23   ar
    23    23    24   ar
    24    24    25   ar
    25     5     1    1
    26    14     6   ar
    27    19    15   ar
    28    25    20   ar
    29    19     4   ar
    30    13     9   ar
    31     1    26    1
    32     1    27    1
    33     3    28    1
    34     7    29    1
    35     8    30    1
    36    10    31    1
    37    11    32    1
    38    12    33    1
    39    12    34    1
    40    16    35    1
    41    18    36    1
    42    21    37    1
    43    22    38    1
    44    23    39    1
    45    24    40    1
