@<TRIPOS>MOLECULE
*****
 39 45 0 0 0
SMALL
GASTEIGER

@<TRIPOS>ATOM
      1 C           1.0802    0.5806   -0.1577 C.3     1  UNL1       -0.0001
      2 C           2.1210   -0.3614    0.4706 C.2     1  UNL1       -0.0252
      3 C           1.5355   -1.4719    0.9697 C.2     1  UNL1       -0.0490
      4 C           0.1243   -1.3545    0.7206 C.ar    1  UNL1       -0.0099
      5 C          -0.2152   -0.1640    0.0567 C.ar    1  UNL1       -0.0275
      6 C          -1.5452    0.2159   -0.3179 C.ar    1  UNL1       -0.0120
      7 C          -1.7770    1.4213   -0.9752 C.ar    1  UNL1       -0.0531
      8 C          -3.0675    1.8073   -1.3477 C.ar    1  UNL1       -0.0529
      9 C          -4.1885    0.9899   -1.0723 C.ar    1  UNL1       -0.0102
     10 C          -5.5734    1.2212   -1.3770 C.ar    1  UNL1       -0.0470
     11 C          -6.3897    0.2027   -0.9565 C.ar    1  UNL1       -0.0232
     12 S          -5.5099   -1.0343   -0.1964 S.2     1  UNL1       -0.0960
     13 C          -3.9889   -0.2331   -0.4102 C.ar    1  UNL1        0.0277
     14 C          -2.6832   -0.6332   -0.0283 C.ar    1  UNL1        0.0074
     15 C          -2.3080   -1.8243    0.6406 C.ar    1  UNL1        0.0292
     16 C          -3.0627   -2.8809    1.0892 C.ar    1  UNL1        0.1000
     17 O          -2.2643   -3.8220    1.6846 O.2     1  UNL1       -0.4698
     18 C          -0.9766   -3.3724    1.6225 C.ar    1  UNL1        0.1000
     19 C          -0.9574   -2.1592    0.9946 C.ar    1  UNL1        0.0279
     20 C           3.5253   -0.1475    0.5467 C.ar    1  UNL1        0.0585
     21 S           4.7095   -1.2092    1.2573 S.2     1  UNL1       -0.0926
     22 C           6.0485   -0.1624    0.8913 C.ar    1  UNL1       -0.0129
     23 C           5.5549    0.9223    0.2608 C.ar    1  UNL1        0.0278
     24 C           5.9906    2.1280   -0.3087 C.ar    1  UNL1       -0.0156
     25 C           4.8257    2.7427   -0.7842 C.ar    1  UNL1        0.0932
     26 O           3.6692    2.0181   -0.5613 O.2     1  UNL1       -0.4618
     27 C           4.1933    0.9305    0.0748 C.ar    1  UNL1        0.1492
     28 H           1.2753    0.7152   -1.2264 H       1  UNL1        0.0362
     29 H           1.0632    1.5423    0.3650 H       1  UNL1        0.0362
     30 H           1.9906   -2.3125    1.4673 H       1  UNL1        0.0627
     31 H          -0.9560    2.0939   -1.2153 H       1  UNL1        0.0624
     32 H          -3.2092    2.7568   -1.8600 H       1  UNL1        0.0624
     33 H          -5.9439    2.1033   -1.8847 H       1  UNL1        0.0629
     34 H          -7.4634    0.1284   -1.0609 H       1  UNL1        0.0694
     35 H          -4.1111   -3.1373    1.0827 H       1  UNL1        0.1036
     36 H          -0.2318   -4.0220    2.0593 H       1  UNL1        0.1036
     37 H           7.0612   -0.4238    1.1625 H       1  UNL1        0.0701
     38 H           6.9936    2.5233   -0.3806 H       1  UNL1        0.0655
     39 H           4.6610    3.6824   -1.2954 H       1  UNL1        0.1030
@<TRIPOS>BOND
     1     1     2    1
     2     2     3    2
     3     3     4    1
     4     4     5   ar
     5     5     6   ar
     6     6     7   ar
     7     7     8   ar
     8     8     9   ar
     9     9    10   ar
    10    10    11   ar
    11    11    12   ar
    12    12    13   ar
    13    13    14   ar
    14    14    15   ar
    15    15    16   ar
    16    16    17   ar
    17    17    18   ar
    18    18    19   ar
    19     2    20    1
    20    20    21   ar
    21    21    22   ar
    22    22    23   ar
    23    23    24   ar
    24    24    25   ar
    25    25    26   ar
    26    26    27   ar
    27     5     1    1
    28    14     6   ar
    29    19    15   ar
    30    27    20   ar
    31    19     4   ar
    32    27    23   ar
    33    13     9   ar
    34     1    28    1
    35     1    29    1
    36     3    30    1
    37     7    31    1
    38     8    32    1
    39    10    33    1
    40    11    34    1
    41    16    35    1
    42    18    36    1
    43    22    37    1
    44    24    38    1
    45    25    39    1
