@<TRIPOS>MOLECULE
*****
 33 37 0 0 0
SMALL
GASTEIGER

@<TRIPOS>ATOM
      1 C           0.5443    0.7799   -0.1562 C.3     1  UNL1        0.0000
      2 C           1.5757   -0.3390   -0.0255 C.2     1  UNL1        0.0000
      3 C           0.9954   -1.5402    0.1616 C.2     1  UNL1        0.0000
      4 C          -0.4340   -1.3286    0.1625 C.ar    1  UNL1        0.0000
      5 C          -0.7575    0.0259   -0.0271 C.ar    1  UNL1        0.0000
      6 C          -2.0797    0.5219   -0.0738 C.ar    1  UNL1        0.0000
      7 C          -2.3610    1.8857   -0.2655 C.ar    1  UNL1        0.0000
      8 C          -3.6789    2.3542   -0.3079 C.ar    1  UNL1        0.0000
      9 C          -4.7483    1.4734   -0.1601 C.ar    1  UNL1        0.0000
     10 C          -4.5099    0.1146    0.0315 C.ar    1  UNL1        0.0000
     11 C          -3.1871   -0.3717    0.0763 C.ar    1  UNL1        0.0000
     12 C          -2.8977   -1.7759    0.2731 C.ar    1  UNL1        0.0000
     13 N          -3.7873   -2.7735    0.4338 N.ar    1  UNL1        0.0000
     14 S          -2.9100   -4.1710    0.6174 S.2     1  UNL1        0.0000
     15 N          -1.3586   -3.5911    0.5042 N.ar    1  UNL1        0.0000
     16 C          -1.4655   -2.2661    0.3165 C.ar    1  UNL1        0.0000
     17 C           2.9954   -0.1146   -0.1126 C.2     1  UNL1        0.0000
     18 C           3.9294   -0.9469   -0.6235 C.2     1  UNL1        0.0000
     19 C           5.2990   -0.4550   -0.6088 C.2     1  UNL1        0.0000
     20 C           5.4643    0.7757   -0.0927 C.2     1  UNL1        0.0000
     21 SI          3.8301    1.4979    0.4723 Si      1  UNL1        0.0000
     22 H           0.6150    1.2659   -1.1347 H       1  UNL1        0.0000
     23 H           0.6369    1.5096    0.6541 H       1  UNL1        0.0000
     24 H           1.4677   -2.5019    0.2857 H       1  UNL1        0.0000
     25 H          -1.5561    2.6074   -0.3862 H       1  UNL1        0.0000
     26 H          -3.8701    3.4144   -0.4579 H       1  UNL1        0.0000
     27 H          -5.7693    1.8455   -0.1944 H       1  UNL1        0.0000
     28 H          -5.3506   -0.5669    0.1458 H       1  UNL1        0.0000
     29 H           3.7110   -1.9239   -1.0388 H       1  UNL1        0.0000
     30 H           6.1095   -1.0606   -0.9962 H       1  UNL1        0.0000
     31 H           6.3917    1.3168    0.0082 H       1  UNL1        0.0000
     32 H           3.7565    1.6734    1.9440 H       1  UNL1        0.0000
     33 H           3.3998    2.6647   -0.3392 H       1  UNL1        0.0000
@<TRIPOS>BOND
     1     1     2    1
     2     2     3    2
     3     3     4    1
     4     4     5   ar
     5     5     6   ar
     6     6     7   ar
     7     7     8   ar
     8     8     9   ar
     9     9    10   ar
    10    10    11   ar
    11    11    12   ar
    12    12    13   ar
    13    13    14   ar
    14    14    15   ar
    15    15    16   ar
    16     2    17    1
    17    17    18    2
    18    18    19    1
    19    19    20    2
    20    20    21    1
    21     5     1    1
    22    11     6   ar
    23    16    12   ar
    24    21    17    1
    25    16     4   ar
    26     1    22    1
    27     1    23    1
    28     3    24    1
    29     7    25    1
    30     8    26    1
    31     9    27    1
    32    10    28    1
    33    18    29    1
    34    19    30    1
    35    20    31    1
    36    21    32    1
    37    21    33    1
