@<TRIPOS>MOLECULE
*****
 38 43 0 0 0
SMALL
GASTEIGER

@<TRIPOS>ATOM
      1 C           1.7540    1.1571   -0.1740 C.3     1  UNL1        0.0000
      2 C           2.7359    0.0228   -0.0793 C.2     1  UNL1        0.0000
      3 C           2.0760   -1.1347    0.1037 C.2     1  UNL1        0.0000
      4 C           0.6515   -0.8832    0.1453 C.ar    1  UNL1        0.0000
      5 C           0.4430    0.4400   -0.0138 C.ar    1  UNL1        0.0000
      6 C          -0.8951    1.0510   -0.0228 C.ar    1  UNL1        0.0000
      7 C          -1.0672    2.4215   -0.1899 C.ar    1  UNL1        0.0000
      8 N          -2.2456    3.0760   -0.2128 N.ar    1  UNL1        0.0000
      9 C          -3.3357    2.2912   -0.0554 C.ar    1  UNL1        0.0000
     10 C          -4.6912    2.6937   -0.0367 C.ar    1  UNL1        0.0000
     11 C          -5.4499    1.5631    0.1480 C.ar    1  UNL1        0.0000
     12 N          -4.5918    0.4969    0.2403 N.ar    1  UNL1        0.0000
     13 C          -3.2821    0.9046    0.1200 C.ar    1  UNL1        0.0000
     14 C          -2.0463    0.2356    0.1417 C.ar    1  UNL1        0.0000
     15 C          -1.8675   -1.2318    0.3209 C.ar    1  UNL1        0.0000
     16 C          -2.8065   -2.1871    0.4924 C.2     1  UNL1        0.0000
     17 SI         -2.0422   -3.8962    0.6723 Si      1  UNL1        0.0000
     18 C          -0.3734   -3.1081    0.4844 C.2     1  UNL1        0.0000
     19 C          -0.4744   -1.7746    0.3183 C.ar    1  UNL1        0.0000
     20 C           4.1729    0.2313   -0.1807 C.ar    1  UNL1        0.0000
     21 N           4.5945    1.4842   -0.3634 N.ar    1  UNL1        0.0000
     22 C           5.9164    1.6112   -0.4483 C.ar    1  UNL1        0.0000
     23 N           6.8058    0.6252   -0.3681 N.ar    1  UNL1        0.0000
     24 C           6.2626   -0.5755   -0.1858 C.ar    1  UNL1        0.0000
     25 N           4.9632   -0.8406   -0.0842 N.ar    1  UNL1        0.0000
     26 H           1.8150    1.6555   -1.1475 H       1  UNL1        0.0000
     27 H           1.9073    1.8839    0.6310 H       1  UNL1        0.0000
     28 H           2.5237   -2.1118    0.2059 H       1  UNL1        0.0000
     29 H          -0.2121    3.0803   -0.3189 H       1  UNL1        0.0000
     30 H          -5.0592    3.7040   -0.1473 H       1  UNL1        0.0000
     31 H          -6.5201    1.4234    0.2215 H       1  UNL1        0.0000
     32 H          -4.8946   -0.4531    0.3781 H       1  UNL1        0.0000
     33 H          -3.8741   -2.1146    0.5386 H       1  UNL1        0.0000
     34 H          -2.4003   -4.7805   -0.4622 H       1  UNL1        0.0000
     35 H          -2.2712   -4.4612    2.0234 H       1  UNL1        0.0000
     36 H           0.5304   -3.6954    0.5129 H       1  UNL1        0.0000
     37 H           6.3053    2.6129   -0.5971 H       1  UNL1        0.0000
     38 H           6.9429   -1.4172   -0.1131 H       1  UNL1        0.0000
@<TRIPOS>BOND
     1     1     2    1
     2     2     3    2
     3     3     4    1
     4     4     5   ar
     5     5     6   ar
     6     6     7   ar
     7     7     8   ar
     8     8     9   ar
     9     9    10   ar
    10    10    11   ar
    11    11    12   ar
    12    12    13   ar
    13    13    14   ar
    14    14    15   ar
    15    15    16    2
    16    16    17    1
    17    17    18    1
    18    18    19    2
    19     2    20    1
    20    20    21   ar
    21    21    22   ar
    22    22    23   ar
    23    23    24   ar
    24    24    25   ar
    25     5     1    1
    26    14     6   ar
    27    19    15   ar
    28    25    20   ar
    29    19     4   ar
    30    13     9   ar
    31     1    26    1
    32     1    27    1
    33     3    28    1
    34     7    29    1
    35    10    30    1
    36    11    31    1
    37    12    32    1
    38    16    33    1
    39    17    34    1
    40    17    35    1
    41    18    36    1
    42    22    37    1
    43    24    38    1
