@<TRIPOS>MOLECULE
*****
 51 58 0 0 0
SMALL
GASTEIGER

@<TRIPOS>ATOM
      1 C           1.3796   -0.7847    0.7171 C.3     1  UNL1        0.0000
      2 C           2.3449   -0.5463   -0.4346 C.2     1  UNL1        0.0000
      3 C           1.7488   -0.1343   -1.5699 C.2     1  UNL1        0.0000
      4 C           0.3400   -0.0612   -1.2706 C.ar    1  UNL1        0.0000
      5 C           0.0745   -0.4318    0.0562 C.ar    1  UNL1        0.0000
      6 C          -1.2382   -0.4064    0.5385 C.ar    1  UNL1        0.0000
      7 O          -1.6279   -0.6911    1.8118 O.2     1  UNL1        0.0000
      8 C          -2.9916   -0.5386    1.8735 C.ar    1  UNL1        0.0000
      9 C          -3.7600   -0.6830    3.0689 C.ar    1  UNL1        0.0000
     10 C          -5.0932   -0.5156    2.9932 C.ar    1  UNL1        0.0000
     11 C          -5.7242   -0.2506    1.7070 C.ar    1  UNL1        0.0000
     12 C          -7.0579   -0.1663    1.5389 C.2     1  UNL1        0.0000
     13 SI         -7.4902    0.0342   -0.2644 Si      1  UNL1        0.0000
     14 C          -5.6648   -0.0363   -0.6616 C.2     1  UNL1        0.0000
     15 C          -4.9161   -0.1257    0.4527 C.ar    1  UNL1        0.0000
     16 C          -3.4923   -0.2182    0.5966 C.ar    1  UNL1        0.0000
     17 C          -2.3597   -0.0592   -0.2074 C.ar    1  UNL1        0.0000
     18 C          -2.1050    0.3773   -1.5572 C.ar    1  UNL1        0.0000
     19 C          -2.8995    0.9131   -2.5261 C.ar    1  UNL1        0.0000
     20 N          -2.0659    1.1524   -3.6049 N.ar    1  UNL1        0.0000
     21 C          -0.7630    0.8104   -3.2945 C.ar    1  UNL1        0.0000
     22 C          -0.7603    0.3380   -2.0043 C.ar    1  UNL1        0.0000
     23 C           3.7834   -0.7578   -0.2704 C.ar    1  UNL1        0.0000
     24 C           4.3067   -1.9793   -0.7205 C.ar    1  UNL1        0.0000
     25 C           5.6630   -2.2582   -0.5892 C.ar    1  UNL1        0.0000
     26 C           6.5105   -1.3172   -0.0094 C.ar    1  UNL1        0.0000
     27 C           6.0180   -0.0828    0.4418 C.ar    1  UNL1        0.0000
     28 C           6.8881    0.8577    1.0187 C.ar    1  UNL1        0.0000
     29 C           6.4184    2.0920    1.4655 C.ar    1  UNL1        0.0000
     30 C           5.0714    2.4044    1.3391 C.ar    1  UNL1        0.0000
     31 C           4.1934    1.4802    0.7689 C.ar    1  UNL1        0.0000
     32 C           4.6382    0.2168    0.3121 C.ar    1  UNL1        0.0000
     33 H           1.3841   -1.8317    1.0346 H       1  UNL1        0.0000
     34 H           1.5789   -0.1204    1.5629 H       1  UNL1        0.0000
     35 H           2.2061    0.1056   -2.5147 H       1  UNL1        0.0000
     36 H          -3.2566   -0.9026    4.0024 H       1  UNL1        0.0000
     37 H          -5.7146   -0.6079    3.8772 H       1  UNL1        0.0000
     38 H          -7.8208   -0.2518    2.2962 H       1  UNL1        0.0000
     39 H          -8.0814    1.3604   -0.5643 H       1  UNL1        0.0000
     40 H          -8.2317   -1.1308   -0.8037 H       1  UNL1        0.0000
     41 H          -5.3398   -0.0394   -1.6835 H       1  UNL1        0.0000
     42 H          -3.9387    1.1896   -2.5831 H       1  UNL1        0.0000
     43 H          -2.3619    1.5549   -4.4846 H       1  UNL1        0.0000
     44 H           0.0289    0.9585   -4.0159 H       1  UNL1        0.0000
     45 H           3.6529   -2.7224   -1.1724 H       1  UNL1        0.0000
     46 H           6.0597   -3.2082   -0.9370 H       1  UNL1        0.0000
     47 H           7.5681   -1.5548    0.0855 H       1  UNL1        0.0000
     48 H           7.9476    0.6339    1.1233 H       1  UNL1        0.0000
     49 H           7.1054    2.8080    1.9084 H       1  UNL1        0.0000
     50 H           4.6986    3.3664    1.6807 H       1  UNL1        0.0000
     51 H           3.1461    1.7607    0.6777 H       1  UNL1        0.0000
@<TRIPOS>BOND
     1     1     2    1
     2     2     3    2
     3     3     4    1
     4     4     5   ar
     5     5     6   ar
     6     6     7   ar
     7     7     8   ar
     8     8     9   ar
     9     9    10   ar
    10    10    11   ar
    11    11    12    2
    12    12    13    1
    13    13    14    1
    14    14    15    2
    15    15    16   ar
    16    16    17   ar
    17    17    18   ar
    18    18    19   ar
    19    19    20   ar
    20    20    21   ar
    21    21    22   ar
    22     2    23    1
    23    23    24   ar
    24    24    25   ar
    25    25    26   ar
    26    26    27   ar
    27    27    28   ar
    28    28    29   ar
    29    29    30   ar
    30    30    31   ar
    31    31    32   ar
    32     5     1    1
    33    17     6   ar
    34    22    18   ar
    35    32    23   ar
    36    22     4   ar
    37    32    27   ar
    38    16     8   ar
    39    15    11   ar
    40     1    33    1
    41     1    34    1
    42     3    35    1
    43     9    36    1
    44    10    37    1
    45    12    38    1
    46    13    39    1
    47    13    40    1
    48    14    41    1
    49    19    42    1
    50    20    43    1
    51    21    44    1
    52    24    45    1
    53    25    46    1
    54    26    47    1
    55    28    48    1
    56    29    49    1
    57    30    50    1
    58    31    51    1
