@<TRIPOS>MOLECULE
*****
 44 51 0 0 0
SMALL
GASTEIGER

@<TRIPOS>ATOM
      1 C           1.1137   -0.5443    1.3420 C.3     1  UNL1        0.0000
      2 C           2.3060   -0.0214    0.5329 C.2     1  UNL1        0.0000
      3 C           1.9065    0.6660   -0.5597 C.2     1  UNL1        0.0000
      4 C           0.4622    0.6447   -0.5816 C.ar    1  UNL1        0.0000
      5 C          -0.0433   -0.0583    0.5159 C.ar    1  UNL1        0.0000
      6 C          -1.4218   -0.2030    0.6736 C.ar    1  UNL1        0.0000
      7 O          -2.0403   -0.9053    1.6711 O.2     1  UNL1        0.0000
      8 C          -3.3906   -0.7755    1.4778 C.ar    1  UNL1        0.0000
      9 C          -4.3735   -1.3774    2.2888 C.ar    1  UNL1        0.0000
     10 C          -5.7339   -1.1387    2.0295 C.ar    1  UNL1        0.0000
     11 C          -5.9530   -0.2425    0.9831 C.ar    1  UNL1        0.0000
     12 C          -7.2263    0.1652    0.6542 C.ar    1  UNL1        0.0000
     13 S          -7.2154    1.3542   -0.5936 S.2     1  UNL1        0.0000
     14 C          -5.4933    1.3352   -0.6981 C.ar    1  UNL1        0.0000
     15 C          -4.9895    0.3940    0.1495 C.ar    1  UNL1        0.0000
     16 C          -3.6186    0.0492    0.3819 C.ar    1  UNL1        0.0000
     17 C          -2.3844    0.3357   -0.1801 C.ar    1  UNL1        0.0000
     18 C          -1.8923    0.9902   -1.3704 C.ar    1  UNL1        0.0000
     19 C          -2.5979    1.4097   -2.4586 C.ar    1  UNL1        0.0000
     20 S          -1.5299    2.1238   -3.6107 S.2     1  UNL1        0.0000
     21 C          -0.1376    1.7650   -2.6591 C.ar    1  UNL1        0.0000
     22 C          -0.4720    1.1228   -1.4891 C.ar    1  UNL1        0.0000
     23 C           3.6933   -0.1735    0.8318 C.ar    1  UNL1        0.0000
     24 S           4.2229   -0.0007    2.4872 S.2     1  UNL1        0.0000
     25 C           5.8804   -0.2627    2.1052 C.ar    1  UNL1        0.0000
     26 C           6.0037   -0.4939    0.7721 C.ar    1  UNL1        0.0000
     27 SI          7.4218   -0.8813   -0.4028 Si      1  UNL1        0.0000
     28 C           6.1420   -0.9809   -1.8163 C.2     1  UNL1        0.0000
     29 C           4.8904   -0.7391   -1.3681 C.2     1  UNL1        0.0000
     30 C           4.7860   -0.4596    0.0375 C.ar    1  UNL1        0.0000
     31 H           1.0809   -0.1053    2.3435 H       1  UNL1        0.0000
     32 H           1.1242   -1.6371    1.3959 H       1  UNL1        0.0000
     33 H           2.5233    1.1623   -1.2910 H       1  UNL1        0.0000
     34 H          -4.0737   -2.0193    3.1119 H       1  UNL1        0.0000
     35 H          -6.5166   -1.5827    2.6331 H       1  UNL1        0.0000
     36 H          -8.1692   -0.1403    1.0870 H       1  UNL1        0.0000
     37 H          -5.0066    2.0449   -1.3442 H       1  UNL1        0.0000
     38 H          -3.6425    1.3279   -2.7039 H       1  UNL1        0.0000
     39 H           0.8411    2.0282   -3.0359 H       1  UNL1        0.0000
     40 H           6.6364   -0.2380    2.8782 H       1  UNL1        0.0000
     41 H           8.0602   -2.2003   -0.1681 H       1  UNL1        0.0000
     42 H           8.3600    0.2492   -0.6135 H       1  UNL1        0.0000
     43 H           6.4452   -1.2182   -2.8232 H       1  UNL1        0.0000
     44 H           4.0222   -0.7689   -2.0157 H       1  UNL1        0.0000
@<TRIPOS>BOND
     1     1     2    1
     2     2     3    2
     3     3     4    1
     4     4     5   ar
     5     5     6   ar
     6     6     7   ar
     7     7     8   ar
     8     8     9   ar
     9     9    10   ar
    10    10    11   ar
    11    11    12   ar
    12    12    13   ar
    13    13    14   ar
    14    14    15   ar
    15    15    16   ar
    16    16    17   ar
    17    17    18   ar
    18    18    19   ar
    19    19    20   ar
    20    20    21   ar
    21    21    22   ar
    22     2    23    1
    23    23    24   ar
    24    24    25   ar
    25    25    26   ar
    26    26    27    1
    27    27    28    1
    28    28    29    2
    29    29    30    1
    30     5     1    1
    31    17     6   ar
    32    22    18   ar
    33    30    23   ar
    34    22     4   ar
    35    30    26   ar
    36    16     8   ar
    37    15    11   ar
    38     1    31    1
    39     1    32    1
    40     3    33    1
    41     9    34    1
    42    10    35    1
    43    12    36    1
    44    14    37    1
    45    19    38    1
    46    21    39    1
    47    25    40    1
    48    27    41    1
    49    27    42    1
    50    28    43    1
    51    29    44    1
