@<TRIPOS>MOLECULE
*****
 46 53 0 0 0
SMALL
GASTEIGER

@<TRIPOS>ATOM
      1 C           2.1463   -0.0289    1.3545 C.3     1  UNL1       -0.0001
      2 C           3.3237   -0.1390    0.3834 C.2     1  UNL1       -0.0317
      3 C           2.9142   -0.1332   -0.9038 C.2     1  UNL1       -0.0495
      4 C           1.4770   -0.0300   -0.8901 C.ar    1  UNL1       -0.0110
      5 C           0.9681    0.0326    0.4087 C.ar    1  UNL1       -0.0209
      6 C          -0.4170    0.1736    0.6668 C.ar    1  UNL1        0.0252
      7 S          -1.1873    0.4119    2.1753 S.2     1  UNL1       -0.0879
      8 C          -2.7579    0.4923    1.4673 C.ar    1  UNL1        0.0211
      9 C          -3.9394    0.7946    2.1695 C.ar    1  UNL1       -0.0468
     10 C          -5.1601    0.7369    1.5054 C.ar    1  UNL1       -0.0529
     11 C          -5.2333    0.2850    0.1925 C.ar    1  UNL1       -0.0172
     12 C          -6.4867    0.1200   -0.4195 C.ar    1  UNL1       -0.0540
     13 C          -6.5943   -0.4329   -1.6940 C.ar    1  UNL1       -0.0612
     14 C          -5.4509   -0.8530   -2.3595 C.ar    1  UNL1       -0.0611
     15 C          -4.1964   -0.6769   -1.7700 C.ar    1  UNL1       -0.0534
     16 C          -4.0462   -0.0513   -0.5125 C.ar    1  UNL1       -0.0091
     17 C          -2.7549    0.1807    0.0981 C.ar    1  UNL1        0.0053
     18 C          -1.3857    0.1830   -0.3396 C.ar    1  UNL1        0.0069
     19 C          -0.8621    0.2329   -1.7008 C.ar    1  UNL1        0.0088
     20 C          -1.4523    0.5114   -2.9000 C.ar    1  UNL1        0.0100
     21 N          -0.4438    0.4540   -3.8430 N.ar    1  UNL1       -0.3659
     22 C           0.7710    0.2146   -3.2299 C.ar    1  UNL1        0.0100
     23 C           0.5330    0.1078   -1.8803 C.ar    1  UNL1        0.0075
     24 C           4.7201   -0.2328    0.8276 C.ar    1  UNL1        0.0247
     25 C           5.8270   -0.3529   -0.0309 C.ar    1  UNL1        0.0372
     26 N           7.1616   -0.4466    0.2915 N.ar    1  UNL1       -0.2604
     27 C           7.5601   -0.4301    1.5926 C.ar    1  UNL1        0.0557
     28 C           6.5703   -0.3152    2.5859 C.ar    1  UNL1        0.1185
     29 N           6.7808   -0.2833    3.9118 N.ar    1  UNL1       -0.1892
     30 S           5.2892   -0.1394    4.6185 S.2     1  UNL1        0.1165
     31 N           4.3165   -0.1115    3.2795 N.ar    1  UNL1       -0.1901
     32 C           5.1106   -0.2139    2.1966 C.ar    1  UNL1        0.1102
     33 H           2.0629   -0.9143    1.9922 H       1  UNL1        0.0362
     34 H           2.1953    0.8911    1.9453 H       1  UNL1        0.0362
     35 H           3.4955   -0.1892   -1.8084 H       1  UNL1        0.0627
     36 H          -3.9026    1.0675    3.2209 H       1  UNL1        0.0629
     37 H          -6.0639    0.9862    2.0576 H       1  UNL1        0.0624
     38 H          -7.3980    0.3982    0.1061 H       1  UNL1        0.0624
     39 H          -7.5720   -0.5676   -2.1485 H       1  UNL1        0.0618
     40 H          -5.5305   -1.3334   -3.3311 H       1  UNL1        0.0618
     41 H          -3.3358   -1.0910   -2.2852 H       1  UNL1        0.0624
     42 H          -2.4553    0.7799   -3.1973 H       1  UNL1        0.0813
     43 H          -0.5695    0.6180   -4.8336 H       1  UNL1        0.1648
     44 H           1.6805    0.1823   -3.8139 H       1  UNL1        0.0813
     45 H           5.6732   -0.3819   -1.1096 H       1  UNL1        0.0836
     46 H           8.6189   -0.5063    1.8005 H       1  UNL1        0.0852
@<TRIPOS>BOND
     1     1     2    1
     2     2     3    2
     3     3     4    1
     4     4     5   ar
     5     5     6   ar
     6     6     7   ar
     7     7     8   ar
     8     8     9   ar
     9     9    10   ar
    10    10    11   ar
    11    11    12   ar
    12    12    13   ar
    13    13    14   ar
    14    14    15   ar
    15    15    16   ar
    16    16    17   ar
    17    17    18   ar
    18    18    19   ar
    19    19    20   ar
    20    20    21   ar
    21    21    22   ar
    22    22    23   ar
    23     2    24    1
    24    24    25   ar
    25    25    26   ar
    26    26    27   ar
    27    27    28   ar
    28    28    29   ar
    29    29    30   ar
    30    30    31   ar
    31    31    32   ar
    32     5     1    1
    33    18     6   ar
    34    23    19   ar
    35    32    24   ar
    36    23     4   ar
    37    32    28   ar
    38    17     8   ar
    39    16    11   ar
    40     1    33    1
    41     1    34    1
    42     3    35    1
    43     9    36    1
    44    10    37    1
    45    12    38    1
    46    13    39    1
    47    14    40    1
    48    15    41    1
    49    20    42    1
    50    21    43    1
    51    22    44    1
    52    25    45    1
    53    27    46    1
