@<TRIPOS>MOLECULE
*****
 40 46 0 0 0
SMALL
GASTEIGER

@<TRIPOS>ATOM
      1 C           1.4370    0.2939    1.0276 C.3     1  UNL1       -0.0002
      2 C           2.5194   -0.1241    0.0355 C.2     1  UNL1       -0.0353
      3 C           1.9884   -0.5818   -1.1179 C.2     1  UNL1       -0.0496
      4 C           0.5516   -0.4955   -0.9941 C.ar    1  UNL1       -0.0120
      5 C           0.1735    0.0168    0.2456 C.ar    1  UNL1       -0.0210
      6 C          -1.1815    0.1894    0.6022 C.ar    1  UNL1        0.0252
      7 S          -1.7780    0.7378    2.1207 S.2     1  UNL1       -0.0878
      8 C          -3.4226    0.6951    1.6059 C.ar    1  UNL1        0.0227
      9 C          -4.5382    1.0504    2.4048 C.ar    1  UNL1       -0.0452
     10 C          -5.8313    1.0617    1.8786 C.ar    1  UNL1       -0.0324
     11 C          -5.9394    0.7502    0.5142 C.ar    1  UNL1        0.1005
     12 N          -7.0886    0.7762   -0.1876 N.ar    1  UNL1       -0.1908
     13 S          -6.6944    0.4177   -1.7682 S.2     1  UNL1        0.1165
     14 N          -5.0490    0.1903   -1.6195 N.ar    1  UNL1       -0.1901
     15 C          -4.8118    0.3676   -0.3312 C.ar    1  UNL1        0.1087
     16 C          -3.4986    0.2859    0.2786 C.ar    1  UNL1        0.0257
     17 C          -2.2464   -0.0974   -0.2618 C.ar    1  UNL1        0.0076
     18 C          -1.8804   -0.7310   -1.5384 C.ar    1  UNL1       -0.0014
     19 C          -2.6896   -1.3055   -2.4767 C.ar    1  UNL1       -0.0160
     20 S          -1.7608   -1.9087   -3.7980 S.2     1  UNL1       -0.1038
     21 C          -0.2795   -1.4655   -3.0478 C.ar    1  UNL1       -0.0160
     22 C          -0.4855   -0.8694   -1.8241 C.ar    1  UNL1       -0.0028
     23 C           3.9551   -0.0226    0.3650 C.ar    1  UNL1       -0.0215
     24 C           4.9498   -0.2703   -0.5953 C.ar    1  UNL1       -0.0543
     25 C           6.3088   -0.1672   -0.2783 C.ar    1  UNL1       -0.0612
     26 C           6.7011    0.1883    1.0076 C.ar    1  UNL1       -0.0617
     27 C           5.7346    0.4421    1.9748 C.ar    1  UNL1       -0.0612
     28 C           4.3761    0.3387    1.6553 C.ar    1  UNL1       -0.0543
     29 H           1.4617   -0.3216    1.9326 H       1  UNL1        0.0362
     30 H           1.5080    1.3583    1.2727 H       1  UNL1        0.0362
     31 H           2.4979   -0.9540   -1.9901 H       1  UNL1        0.0627
     32 H          -4.3870    1.3376    3.4447 H       1  UNL1        0.0629
     33 H          -6.6942    1.3408    2.4714 H       1  UNL1        0.0640
     34 H          -3.7539   -1.4577   -2.5070 H       1  UNL1        0.0700
     35 H           0.6524   -1.6942   -3.5455 H       1  UNL1        0.0700
     36 H           4.6892   -0.5433   -1.6140 H       1  UNL1        0.0624
     37 H           7.0584   -0.3640   -1.0405 H       1  UNL1        0.0618
     38 H           7.7562    0.2687    1.2546 H       1  UNL1        0.0618
     39 H           6.0342    0.7213    2.9818 H       1  UNL1        0.0618
     40 H           3.6574    0.5447    2.4440 H       1  UNL1        0.0624
@<TRIPOS>BOND
     1     1     2    1
     2     2     3    2
     3     3     4    1
     4     4     5   ar
     5     5     6   ar
     6     6     7   ar
     7     7     8   ar
     8     8     9   ar
     9     9    10   ar
    10    10    11   ar
    11    11    12   ar
    12    12    13   ar
    13    13    14   ar
    14    14    15   ar
    15    15    16   ar
    16    16    17   ar
    17    17    18   ar
    18    18    19   ar
    19    19    20   ar
    20    20    21   ar
    21    21    22   ar
    22     2    23    1
    23    23    24   ar
    24    24    25   ar
    25    25    26   ar
    26    26    27   ar
    27    27    28   ar
    28     5     1    1
    29    17     6   ar
    30    22    18   ar
    31    28    23   ar
    32    22     4   ar
    33    16     8   ar
    34    15    11   ar
    35     1    29    1
    36     1    30    1
    37     3    31    1
    38     9    32    1
    39    10    33    1
    40    19    34    1
    41    21    35    1
    42    24    36    1
    43    25    37    1
    44    26    38    1
    45    27    39    1
    46    28    40    1
