@<TRIPOS>MOLECULE
*****
 35 40 0 0 0
SMALL
GASTEIGER

@<TRIPOS>ATOM
      1 C          -1.5321   -0.5723    1.0585 C.3     1  UNL1       -0.0011
      2 C          -0.7928    0.1001   -0.0961 C.2     1  UNL1       -0.0331
      3 C          -1.6404    0.6659   -0.9796 C.2     1  UNL1       -0.0481
      4 C          -2.9809    0.4397   -0.4899 C.ar    1  UNL1        0.0069
      5 C          -2.9678   -0.2811    0.7142 C.ar    1  UNL1       -0.0337
      6 C          -4.1270   -0.6380    1.4170 C.ar    1  UNL1       -0.0555
      7 C          -5.4077   -0.2830    0.9403 C.ar    1  UNL1       -0.0332
      8 C          -5.4773    0.4504   -0.2822 C.ar    1  UNL1        0.1005
      9 N          -6.5968    0.8727   -0.8894 N.ar    1  UNL1       -0.1908
     10 S          -6.1087    1.6696   -2.2661 S.2     1  UNL1        0.1165
     11 N          -4.4566    1.5145   -2.1620 N.ar    1  UNL1       -0.1902
     12 C          -4.2152    0.8301   -1.0330 C.ar    1  UNL1        0.1073
     13 C           0.6737    0.0880   -0.1696 C.ar    1  UNL1        0.0072
     14 C           1.4526   -0.9648    0.3712 C.ar    1  UNL1       -0.0444
     15 C           2.8730   -1.0247    0.3410 C.ar    1  UNL1       -0.0151
     16 C           3.5537   -2.1195    0.8958 C.ar    1  UNL1       -0.0539
     17 C           4.9512   -2.1943    0.8735 C.ar    1  UNL1       -0.0612
     18 C           5.7034   -1.1748    0.2950 C.ar    1  UNL1       -0.0611
     19 C           5.0619   -0.0736   -0.2651 C.ar    1  UNL1       -0.0519
     20 C           3.6528    0.0068   -0.2459 C.ar    1  UNL1        0.0103
     21 C           2.9302    1.1146   -0.8031 C.ar    1  UNL1        0.1081
     22 N           3.4706    2.1958   -1.3959 N.ar    1  UNL1       -0.1901
     23 S           2.2141    3.1750   -1.8427 S.2     1  UNL1        0.1165
     24 N           0.9273    2.2848   -1.3106 N.ar    1  UNL1       -0.1902
     25 C           1.4146    1.1568   -0.7611 C.ar    1  UNL1        0.1079
     26 H          -1.3645   -1.6534    1.0744 H       1  UNL1        0.0362
     27 H          -1.2634   -0.1191    2.0178 H       1  UNL1        0.0362
     28 H          -1.4160    1.2008   -1.8893 H       1  UNL1        0.0627
     29 H          -4.0447   -1.1981    2.3467 H       1  UNL1        0.0621
     30 H          -6.3114   -0.5528    1.4752 H       1  UNL1        0.0640
     31 H           0.9298   -1.8050    0.8309 H       1  UNL1        0.0630
     32 H           3.0012   -2.9368    1.3560 H       1  UNL1        0.0624
     33 H           5.4532   -3.0547    1.3103 H       1  UNL1        0.0618
     34 H           6.7885   -1.2376    0.2801 H       1  UNL1        0.0618
     35 H           5.6516    0.7217   -0.7164 H       1  UNL1        0.0624
@<TRIPOS>BOND
     1     1     2    1
     2     2     3    2
     3     3     4    1
     4     4     5   ar
     5     5     6   ar
     6     6     7   ar
     7     7     8   ar
     8     8     9   ar
     9     9    10   ar
    10    10    11   ar
    11    11    12   ar
    12     2    13    1
    13    13    14   ar
    14    14    15   ar
    15    15    16   ar
    16    16    17   ar
    17    17    18   ar
    18    18    19   ar
    19    19    20   ar
    20    20    21   ar
    21    21    22   ar
    22    22    23   ar
    23    23    24   ar
    24    24    25   ar
    25     5     1    1
    26    12     8   ar
    27    25    13   ar
    28    12     4   ar
    29    20    15   ar
    30    25    21   ar
    31     1    26    1
    32     1    27    1
    33     3    28    1
    34     6    29    1
    35     7    30    1
    36    14    31    1
    37    16    32    1
    38    17    33    1
    39    18    34    1
    40    19    35    1
