@<TRIPOS>MOLECULE
*****
 35 39 0 0 0
SMALL
GASTEIGER

@<TRIPOS>ATOM
      1 SI         -1.3232   -0.6253    1.3278 Si      1  UNL1        0.0000
      2 C           0.0376    0.3683    0.4700 C.2     1  UNL1        0.0000
      3 C          -0.4919    1.2161   -0.4366 C.2     1  UNL1        0.0000
      4 C          -1.9449    1.1803   -0.5524 C.2     1  UNL1        0.0000
      5 C          -2.5690    0.3113    0.2690 C.2     1  UNL1        0.0000
      6 C          -3.9661    0.0962    0.2946 C.ar    1  UNL1        0.0000
      7 S          -4.8634    0.0672    1.7850 S.2     1  UNL1        0.0000
      8 C          -6.3757   -0.1933    1.0082 C.ar    1  UNL1        0.0000
      9 C          -6.2094   -0.2556   -0.3434 C.ar    1  UNL1        0.0000
     10 S          -7.4026   -0.5095   -1.6678 S.2     1  UNL1        0.0000
     11 C          -6.0108   -0.3940   -2.7358 C.ar    1  UNL1        0.0000
     12 C          -4.7725   -0.1812   -2.1186 C.ar    1  UNL1        0.0000
     13 C          -4.8730   -0.0899   -0.7031 C.ar    1  UNL1        0.0000
     14 C           1.4166    0.2189    0.7652 C.ar    1  UNL1        0.0000
     15 C           2.0416    0.0453    1.9895 C.ar    1  UNL1        0.0000
     16 C           3.4591   -0.0823    1.8863 C.ar    1  UNL1        0.0000
     17 C           3.9026   -0.0065    0.5826 C.ar    1  UNL1        0.0000
     18 S           2.5949    0.2194   -0.4960 S.2     1  UNL1        0.0000
     19 C           5.2585   -0.0938    0.1059 C.ar    1  UNL1        0.0000
     20 C           6.4280   -0.2719    0.8320 C.ar    1  UNL1        0.0000
     21 C           7.5038   -0.2923   -0.0890 C.ar    1  UNL1        0.0000
     22 C           6.9403   -0.1261   -1.3285 C.ar    1  UNL1        0.0000
     23 O           5.5947   -0.0060   -1.2243 O.2     1  UNL1        0.0000
     24 H          -1.2627   -2.0744    1.0019 H       1  UNL1        0.0000
     25 H          -1.4130   -0.3001    2.7766 H       1  UNL1        0.0000
     26 H           0.0831    1.8988   -1.0516 H       1  UNL1        0.0000
     27 H          -2.4491    1.8289   -1.2593 H       1  UNL1        0.0000
     28 H          -7.3024   -0.2879    1.5570 H       1  UNL1        0.0000
     29 H          -6.1950   -0.4971   -3.7966 H       1  UNL1        0.0000
     30 H          -3.8507   -0.1032   -2.6820 H       1  UNL1        0.0000
     31 H           1.5112    0.0216    2.9343 H       1  UNL1        0.0000
     32 H           4.1121   -0.2202    2.7389 H       1  UNL1        0.0000
     33 H           6.4978   -0.3755    1.9055 H       1  UNL1        0.0000
     34 H           8.5563   -0.4128    0.1249 H       1  UNL1        0.0000
     35 H           7.3368   -0.0736   -2.3329 H       1  UNL1        0.0000
@<TRIPOS>BOND
     1     1     2    1
     2     2     3    2
     3     3     4    1
     4     4     5    2
     5     5     6    1
     6     6     7   ar
     7     7     8   ar
     8     8     9   ar
     9     9    10   ar
    10    10    11   ar
    11    11    12   ar
    12    12    13   ar
    13     2    14    1
    14    14    15   ar
    15    15    16   ar
    16    16    17   ar
    17    17    18   ar
    18    17    19    1
    19    19    20   ar
    20    20    21   ar
    21    21    22   ar
    22    22    23   ar
    23     5     1    1
    24    13     6   ar
    25    18    14   ar
    26    23    19   ar
    27    13     9   ar
    28     1    24    1
    29     1    25    1
    30     3    26    1
    31     4    27    1
    32     8    28    1
    33    11    29    1
    34    12    30    1
    35    15    31    1
    36    16    32    1
    37    20    33    1
    38    21    34    1
    39    22    35    1
