@<TRIPOS>MOLECULE
*****
 35 40 0 0 0
SMALL
GASTEIGER

@<TRIPOS>ATOM
      1 C          -0.7675   -0.2954    1.4823 C.3     1  UNL1       -0.0007
      2 C          -1.6198   -0.1419    0.2240 C.2     1  UNL1       -0.0281
      3 C          -0.8374   -0.0028   -0.8663 C.2     1  UNL1       -0.0497
      4 C           0.5579   -0.0389   -0.4562 C.ar    1  UNL1       -0.0193
      5 C           1.6987    0.0698   -1.2395 C.ar    1  UNL1       -0.0303
      6 C           2.9244   -0.0008   -0.5575 C.ar    1  UNL1        0.0486
      7 N           4.2036    0.0749   -1.0600 N.ar    1  UNL1       -0.3537
      8 C           5.0974   -0.0427   -0.0260 C.ar    1  UNL1        0.0546
      9 C           6.5077   -0.0480    0.1419 C.ar    1  UNL1       -0.0307
     10 C           6.8178   -0.2089    1.4758 C.ar    1  UNL1       -0.0217
     11 S           5.4478   -0.3509    2.5080 S.2     1  UNL1       -0.0945
     12 C           4.4002   -0.1933    1.1353 C.ar    1  UNL1        0.0446
     13 C           3.0035   -0.1712    0.8326 C.ar    1  UNL1        0.0143
     14 C           1.8303   -0.2795    1.6061 C.ar    1  UNL1       -0.0474
     15 C           0.6208   -0.2089    0.9266 C.ar    1  UNL1       -0.0352
     16 C          -3.0433   -0.1428    0.1254 C.ar    1  UNL1        0.0249
     17 S          -4.0193   -0.6597    1.4967 S.2     1  UNL1       -0.0943
     18 C          -5.5286   -0.4138    0.6878 C.ar    1  UNL1        0.0002
     19 C          -5.2613    0.0452   -0.5485 C.ar    1  UNL1        0.0542
     20 N          -6.1762    0.3746   -1.5056 N.ar    1  UNL1       -0.3602
     21 C          -5.3455    0.7876   -2.5430 C.ar    1  UNL1        0.0028
     22 C          -3.9840    0.6943   -2.1834 C.ar    1  UNL1       -0.0356
     23 C          -3.9253    0.1927   -0.8519 C.ar    1  UNL1        0.0141
     24 H          -0.9569    0.5205    2.1869 H       1  UNL1        0.0362
     25 H          -0.9322   -1.2676    1.9574 H       1  UNL1        0.0362
     26 H          -1.1383    0.1101   -1.8942 H       1  UNL1        0.0627
     27 H           1.6463    0.2015   -2.3136 H       1  UNL1        0.0644
     28 H           4.4751    0.1968   -2.0266 H       1  UNL1        0.1659
     29 H           7.2415    0.0571   -0.6464 H       1  UNL1        0.0644
     30 H           7.8046   -0.2524    1.9163 H       1  UNL1        0.0694
     31 H           1.8734   -0.4122    2.6814 H       1  UNL1        0.0627
     32 H          -6.4809   -0.6119    1.1583 H       1  UNL1        0.0714
     33 H          -7.1858    0.3254   -1.4468 H       1  UNL1        0.1653
     34 H          -5.7912    1.1250   -3.4700 H       1  UNL1        0.0807
     35 H          -3.1574    0.9683   -2.8241 H       1  UNL1        0.0639
@<TRIPOS>BOND
     1     1     2    1
     2     2     3    2
     3     3     4    1
     4     4     5   ar
     5     5     6   ar
     6     6     7   ar
     7     7     8   ar
     8     8     9   ar
     9     9    10   ar
    10    10    11   ar
    11    11    12   ar
    12    12    13   ar
    13    13    14   ar
    14    14    15   ar
    15     2    16    1
    16    16    17   ar
    17    17    18   ar
    18    18    19   ar
    19    19    20   ar
    20    20    21   ar
    21    21    22   ar
    22    22    23   ar
    23    15     1    1
    24    23    16   ar
    25    15     4   ar
    26    23    19   ar
    27    13     6   ar
    28    12     8   ar
    29     1    24    1
    30     1    25    1
    31     3    26    1
    32     5    27    1
    33     7    28    1
    34     9    29    1
    35    10    30    1
    36    14    31    1
    37    18    32    1
    38    20    33    1
    39    21    34    1
    40    22    35    1
