@<TRIPOS>MOLECULE
*****
 44 50 0 0 0
SMALL
GASTEIGER

@<TRIPOS>ATOM
      1 C           1.7368    1.5202   -0.6834 C.3     1  UNL1       -0.0007
      2 C           2.7962    0.6350   -0.0371 C.2     1  UNL1       -0.0268
      3 C           2.2310   -0.3272    0.7212 C.2     1  UNL1       -0.0497
      4 C           0.7877   -0.1961    0.6312 C.ar    1  UNL1       -0.0206
      5 C          -0.2066   -0.9462    1.2149 C.ar    1  UNL1       -0.0459
      6 C          -1.5516   -0.5869    0.9456 C.ar    1  UNL1       -0.0076
      7 C          -2.6729   -1.2622    1.4709 C.ar    1  UNL1        0.0077
      8 C          -2.6722   -2.3520    2.3105 C.ar    1  UNL1        0.0100
      9 N          -3.9862   -2.6743    2.5660 N.ar    1  UNL1       -0.3659
     10 C          -4.8224   -1.8064    1.9007 C.ar    1  UNL1        0.0100
     11 C          -4.0286   -0.9182    1.2127 C.ar    1  UNL1        0.0077
     12 C          -4.4529    0.1494    0.3932 C.ar    1  UNL1       -0.0082
     13 C          -5.8061    0.4837    0.1423 C.ar    1  UNL1       -0.0534
     14 C          -6.1109    1.5575   -0.6819 C.ar    1  UNL1       -0.0611
     15 C          -5.0803    2.2928   -1.2519 C.ar    1  UNL1       -0.0611
     16 C          -3.7391    1.9588   -1.0012 C.ar    1  UNL1       -0.0534
     17 C          -3.3501    0.8781   -0.1720 C.ar    1  UNL1       -0.0095
     18 C          -1.9323    0.5232    0.0943 C.ar    1  UNL1       -0.0092
     19 C          -0.8454    1.2421   -0.4621 C.ar    1  UNL1       -0.0494
     20 C           0.4727    0.8811   -0.1925 C.ar    1  UNL1       -0.0353
     21 C           4.2029    0.7668   -0.1314 C.ar    1  UNL1        0.0395
     22 S           5.0288    2.2890    0.0285 S.2     1  UNL1       -0.0943
     23 C           6.6041    1.5883   -0.1907 C.ar    1  UNL1       -0.0145
     24 C           6.4344    0.2684   -0.4036 C.ar    1  UNL1        0.0073
     25 C           7.1761   -0.9066   -0.6745 C.ar    1  UNL1       -0.0361
     26 C           6.2467   -1.9607   -0.8024 C.ar    1  UNL1        0.0028
     27 N           4.9378   -1.5160   -0.6256 N.ar    1  UNL1       -0.3598
     28 C           5.1335   -0.1849   -0.3812 C.ar    1  UNL1        0.0611
     29 H           1.8019    1.4741   -1.7748 H       1  UNL1        0.0362
     30 H           1.8114    2.5540   -0.3325 H       1  UNL1        0.0362
     31 H           2.7242   -1.0710    1.3273 H       1  UNL1        0.0627
     32 H           0.0371   -1.7824    1.8590 H       1  UNL1        0.0630
     33 H          -1.8753   -2.9319    2.7545 H       1  UNL1        0.0813
     34 H          -4.2926   -3.4366    3.1566 H       1  UNL1        0.1648
     35 H          -5.8948   -1.9113    1.9874 H       1  UNL1        0.0813
     36 H          -6.6123   -0.0906    0.5880 H       1  UNL1        0.0624
     37 H          -7.1462    1.8204   -0.8790 H       1  UNL1        0.0618
     38 H          -5.3113    3.1359   -1.8987 H       1  UNL1        0.0618
     39 H          -2.9934    2.5836   -1.4845 H       1  UNL1        0.0624
     40 H          -1.0053    2.0950   -1.1130 H       1  UNL1        0.0627
     41 H           7.5015    2.1887   -0.1614 H       1  UNL1        0.0700
     42 H           8.2487   -1.0029   -0.7780 H       1  UNL1        0.0639
     43 H           6.4185   -3.0080   -1.0154 H       1  UNL1        0.0807
     44 H           4.0570   -2.0137   -0.6716 H       1  UNL1        0.1654
@<TRIPOS>BOND
     1     1     2    1
     2     2     3    2
     3     3     4    1
     4     4     5   ar
     5     5     6   ar
     6     6     7   ar
     7     7     8   ar
     8     8     9   ar
     9     9    10   ar
    10    10    11   ar
    11    11    12   ar
    12    12    13   ar
    13    13    14   ar
    14    14    15   ar
    15    15    16   ar
    16    16    17   ar
    17    17    18   ar
    18    18    19   ar
    19    19    20   ar
    20     2    21    1
    21    21    22   ar
    22    22    23   ar
    23    23    24   ar
    24    24    25   ar
    25    25    26   ar
    26    26    27   ar
    27    27    28   ar
    28    20     1    1
    29    28    21   ar
    30    20     4   ar
    31    28    24   ar
    32    18     6   ar
    33    11     7   ar
    34    17    12   ar
    35     1    29    1
    36     1    30    1
    37     3    31    1
    38     5    32    1
    39     8    33    1
    40     9    34    1
    41    10    35    1
    42    13    36    1
    43    14    37    1
    44    15    38    1
    45    16    39    1
    46    19    40    1
    47    23    41    1
    48    25    42    1
    49    26    43    1
    50    27    44    1
