@<TRIPOS>MOLECULE
*****
 44 51 0 0 0
SMALL
GASTEIGER

@<TRIPOS>ATOM
      1 C          -1.3322   -0.6326    1.0576 C.3     1  UNL1       -0.0012
      2 C          -2.3569   -0.1467    0.0491 C.2     1  UNL1       -0.0347
      3 C          -1.7784    0.3527   -1.0595 C.2     1  UNL1       -0.0502
      4 C          -0.3394    0.2723   -0.8860 C.ar    1  UNL1       -0.0206
      5 C           0.6783    0.6600   -1.7255 C.ar    1  UNL1       -0.0445
      6 C           2.0157    0.4638   -1.2998 C.ar    1  UNL1        0.0115
      7 C           3.0874    0.8625   -2.1596 C.ar    1  UNL1        0.1082
      8 N           2.9613    1.4257   -3.3768 N.ar    1  UNL1       -0.1901
      9 S           4.4869    1.6934   -3.9519 S.2     1  UNL1        0.1165
     10 N           5.3844    1.1106   -2.6918 N.ar    1  UNL1       -0.1901
     11 C           4.5205    0.6757   -1.7536 C.ar    1  UNL1        0.1082
     12 C           4.8718    0.0927   -0.4934 C.ar    1  UNL1        0.0131
     13 C           6.2610   -0.0519   -0.1787 C.ar    1  UNL1       -0.0497
     14 C           6.7241   -0.6046    1.0157 C.ar    1  UNL1       -0.0328
     15 C           5.7278   -1.0231    1.9168 C.ar    1  UNL1        0.1005
     16 N           5.9783   -1.5770    3.1126 N.ar    1  UNL1       -0.1908
     17 S           4.5114   -1.8976    3.8026 S.2     1  UNL1        0.1165
     18 N           3.4963   -1.3514    2.6192 N.ar    1  UNL1       -0.1901
     19 C           4.2470   -0.8803    1.6056 C.ar    1  UNL1        0.1082
     20 C           3.7676   -0.3017    0.3564 C.ar    1  UNL1        0.0202
     21 C           2.3603   -0.1226   -0.0319 C.ar    1  UNL1       -0.0056
     22 C           1.2565   -0.4972    0.7767 C.ar    1  UNL1       -0.0493
     23 C          -0.0525   -0.2992    0.3484 C.ar    1  UNL1       -0.0353
     24 C          -3.7825   -0.2754    0.3033 C.ar    1  UNL1       -0.0108
     25 C          -4.3957   -1.3879    0.9386 C.ar    1  UNL1       -0.0536
     26 C          -5.8100   -1.5069    1.1959 C.ar    1  UNL1       -0.0605
     27 C          -6.7661   -0.5230    0.8593 C.ar    1  UNL1       -0.0510
     28 C          -6.1442    0.5622    0.2592 C.ar    1  UNL1        0.0204
     29 C          -6.7476    1.7120   -0.1729 C.ar    1  UNL1        0.0994
     30 O          -5.8004    2.5600   -0.6763 O.2     1  UNL1       -0.4698
     31 C          -4.5864    1.9378   -0.5613 C.ar    1  UNL1        0.1000
     32 C          -4.7458    0.6918   -0.0075 C.ar    1  UNL1        0.0272
     33 H          -1.4045   -1.7112    1.2268 H       1  UNL1        0.0362
     34 H          -1.4107   -0.0827    2.0006 H       1  UNL1        0.0362
     35 H          -2.2568    0.7345   -1.9471 H       1  UNL1        0.0627
     36 H           0.4534    1.1059   -2.6904 H       1  UNL1        0.0630
     37 H           7.0108    0.2826   -0.8994 H       1  UNL1        0.0625
     38 H           7.7792   -0.7069    1.2387 H       1  UNL1        0.0640
     39 H           1.3891   -0.9493    1.7533 H       1  UNL1        0.0627
     40 H          -3.7708   -2.2284    1.2435 H       1  UNL1        0.0624
     41 H          -6.1601   -2.4186    1.6825 H       1  UNL1        0.0618
     42 H          -7.8230   -0.6199    1.0612 H       1  UNL1        0.0625
     43 H          -7.7624    2.0830   -0.1917 H       1  UNL1        0.1035
     44 H          -3.7428    2.5168   -0.9080 H       1  UNL1        0.1036
@<TRIPOS>BOND
     1     1     2    1
     2     2     3    2
     3     3     4    1
     4     4     5   ar
     5     5     6   ar
     6     6     7   ar
     7     7     8   ar
     8     8     9   ar
     9     9    10   ar
    10    10    11   ar
    11    11    12   ar
    12    12    13   ar
    13    13    14   ar
    14    14    15   ar
    15    15    16   ar
    16    16    17   ar
    17    17    18   ar
    18    18    19   ar
    19    19    20   ar
    20    20    21   ar
    21    21    22   ar
    22    22    23   ar
    23     2    24    1
    24    24    25   ar
    25    25    26   ar
    26    26    27   ar
    27    27    28   ar
    28    28    29   ar
    29    29    30   ar
    30    30    31   ar
    31    31    32   ar
    32    23     1    1
    33    32    24   ar
    34    23     4   ar
    35    32    28   ar
    36    21     6   ar
    37    11     7   ar
    38    20    12   ar
    39    19    15   ar
    40     1    33    1
    41     1    34    1
    42     3    35    1
    43     5    36    1
    44    13    37    1
    45    14    38    1
    46    22    39    1
    47    25    40    1
    48    26    41    1
    49    27    42    1
    50    29    43    1
    51    31    44    1
