@<TRIPOS>MOLECULE
*****
 40 46 0 0 0
SMALL
GASTEIGER

@<TRIPOS>ATOM
      1 C           1.7287    0.5658   -0.1104 C.3     1  UNL1       -0.0007
      2 C           2.6537   -0.4231    0.5987 C.2     1  UNL1       -0.0281
      3 C           1.9394   -1.4333    1.1400 C.2     1  UNL1       -0.0497
      4 C           0.5314   -1.2188    0.8528 C.ar    1  UNL1       -0.0206
      5 C          -0.5711   -1.9736    1.1943 C.ar    1  UNL1       -0.0466
      6 C          -1.8496   -1.5455    0.7903 C.ar    1  UNL1       -0.0166
      7 C          -2.9556   -2.3202    1.1437 C.ar    1  UNL1       -0.0534
      8 C          -4.2481   -1.9510    0.7743 C.ar    1  UNL1       -0.0534
      9 C          -4.4945   -0.7936    0.0365 C.ar    1  UNL1       -0.0151
     10 C          -5.8453   -0.5013   -0.2922 C.ar    1  UNL1       -0.0519
     11 C          -6.2539    0.6190   -1.0252 C.ar    1  UNL1       -0.0329
     12 C          -5.2241    1.4817   -1.4412 C.ar    1  UNL1        0.1005
     13 N          -5.4134    2.6043   -2.1514 N.ar    1  UNL1       -0.1908
     14 S          -3.9167    3.2656   -2.3921 S.2     1  UNL1        0.1165
     15 N          -2.9679    2.1613   -1.6092 N.ar    1  UNL1       -0.1901
     16 C          -3.7734    1.2038   -1.1103 C.ar    1  UNL1        0.1081
     17 C          -3.3806    0.0292   -0.3457 C.ar    1  UNL1        0.0180
     18 C          -2.0318   -0.3472    0.0345 C.ar    1  UNL1       -0.0078
     19 C          -0.8632    0.3908   -0.2895 C.ar    1  UNL1       -0.0493
     20 C           0.3861   -0.0512    0.1199 C.ar    1  UNL1       -0.0353
     21 C           4.0765   -0.3313    0.6995 C.ar    1  UNL1        0.0265
     22 S           5.0789   -1.5158    1.5341 S.2     1  UNL1       -0.0926
     23 C           6.5643   -0.6989    1.1984 C.ar    1  UNL1        0.0192
     24 C           6.2666    0.4030    0.4920 C.ar    1  UNL1        0.1424
     25 O           7.1538    1.3236    0.0270 O.2     1  UNL1       -0.4624
     26 C           6.2792    2.1910   -0.5997 C.ar    1  UNL1        0.0932
     27 C           4.9342    1.8093   -0.5146 C.ar    1  UNL1       -0.0150
     28 C           4.9362    0.6069    0.2207 C.ar    1  UNL1        0.0346
     29 H           1.9559    0.6182   -1.1798 H       1  UNL1        0.0362
     30 H           1.7868    1.5570    0.3499 H       1  UNL1        0.0362
     31 H           2.2936   -2.2836    1.7010 H       1  UNL1        0.0627
     32 H          -0.4404   -2.8861    1.7689 H       1  UNL1        0.0630
     33 H          -2.8260   -3.2353    1.7198 H       1  UNL1        0.0624
     34 H          -5.0682   -2.5990    1.0815 H       1  UNL1        0.0624
     35 H          -6.6319   -1.1828    0.0393 H       1  UNL1        0.0624
     36 H          -7.2933    0.8132   -1.2593 H       1  UNL1        0.0640
     37 H          -0.9105    1.3114   -0.8598 H       1  UNL1        0.0627
     38 H           7.5328   -1.0515    1.5206 H       1  UNL1        0.0731
     39 H           6.7632    3.0398   -1.0652 H       1  UNL1        0.1030
     40 H           4.0983    2.3479   -0.9360 H       1  UNL1        0.0655
@<TRIPOS>BOND
     1     1     2    1
     2     2     3    2
     3     3     4    1
     4     4     5   ar
     5     5     6   ar
     6     6     7   ar
     7     7     8   ar
     8     8     9   ar
     9     9    10   ar
    10    10    11   ar
    11    11    12   ar
    12    12    13   ar
    13    13    14   ar
    14    14    15   ar
    15    15    16   ar
    16    16    17   ar
    17    17    18   ar
    18    18    19   ar
    19    19    20   ar
    20     2    21    1
    21    21    22   ar
    22    22    23   ar
    23    23    24   ar
    24    24    25   ar
    25    25    26   ar
    26    26    27   ar
    27    27    28   ar
    28    20     1    1
    29    28    21   ar
    30    20     4   ar
    31    28    24   ar
    32    18     6   ar
    33    17     9   ar
    34    16    12   ar
    35     1    29    1
    36     1    30    1
    37     3    31    1
    38     5    32    1
    39     7    33    1
    40     8    34    1
    41    10    35    1
    42    11    36    1
    43    19    37    1
    44    23    38    1
    45    26    39    1
    46    27    40    1
