@<TRIPOS>MOLECULE
*****
 37 42 0 0 0
SMALL
GASTEIGER

@<TRIPOS>ATOM
      1 C          -0.7817    0.5299   -0.0250 C.3     1  UNL1        0.0000
      2 C          -1.5098   -0.7891   -0.2864 C.2     1  UNL1        0.0000
      3 C          -0.6145   -1.7941   -0.4149 C.2     1  UNL1        0.0000
      4 C           0.7299   -1.2652   -0.2590 C.ar    1  UNL1        0.0000
      5 C           1.9488   -1.9192   -0.3117 C.ar    1  UNL1        0.0000
      6 C           3.1260   -1.1699   -0.1261 C.ar    1  UNL1        0.0000
      7 C           4.3893   -1.7520   -0.1643 C.ar    1  UNL1        0.0000
      8 N           5.5646   -1.1131    0.0023 N.ar    1  UNL1        0.0000
      9 C           5.4840    0.2251    0.2276 C.ar    1  UNL1        0.0000
     10 C           6.6133    1.0725    0.4278 C.ar    1  UNL1        0.0000
     11 C           6.2592    2.3841    0.6352 C.ar    1  UNL1        0.0000
     12 S           4.5679    2.6019    0.5901 S.2     1  UNL1        0.0000
     13 C           4.2748    0.9243    0.2885 C.ar    1  UNL1        0.0000
     14 C           3.0472    0.2262    0.1091 C.ar    1  UNL1        0.0000
     15 C           1.7916    0.8733    0.1588 C.ar    1  UNL1        0.0000
     16 C           0.6534    0.1071   -0.0278 C.ar    1  UNL1        0.0000
     17 C          -2.9280   -0.9947   -0.3909 C.ar    1  UNL1        0.0000
     18 S          -3.6245   -2.5733   -0.7050 S.2     1  UNL1        0.0000
     19 C          -5.2458   -2.0061   -0.6821 C.ar    1  UNL1        0.0000
     20 C          -5.2802   -0.6625   -0.4453 C.ar    1  UNL1        0.0000
     21 C          -6.3996    0.2236   -0.3419 C.2     1  UNL1        0.0000
     22 C          -6.0837    1.5131   -0.0978 C.2     1  UNL1        0.0000
     23 SI         -4.1998    1.7440    0.0339 Si      1  UNL1        0.0000
     24 C          -3.9759   -0.1121   -0.2848 C.ar    1  UNL1        0.0000
     25 H          -1.0567    0.9449    0.9495 H       1  UNL1        0.0000
     26 H          -0.9707    1.2496   -0.8274 H       1  UNL1        0.0000
     27 H          -0.8007   -2.8398   -0.6029 H       1  UNL1        0.0000
     28 H           1.9865   -2.9892   -0.4931 H       1  UNL1        0.0000
     29 H           4.4973   -2.8206   -0.3421 H       1  UNL1        0.0000
     30 H           7.6364    0.7205    0.4173 H       1  UNL1        0.0000
     31 H           6.9143    3.2263    0.8114 H       1  UNL1        0.0000
     32 H           1.7052    1.9402    0.3373 H       1  UNL1        0.0000
     33 H          -6.0668   -2.6903   -0.8431 H       1  UNL1        0.0000
     34 H          -7.4198   -0.1257   -0.4530 H       1  UNL1        0.0000
     35 H          -6.7595    2.3451    0.0174 H       1  UNL1        0.0000
     36 H          -3.7954    2.1646    1.3985 H       1  UNL1        0.0000
     37 H          -3.6769    2.6008   -1.0593 H       1  UNL1        0.0000
@<TRIPOS>BOND
     1     1     2    1
     2     2     3    2
     3     3     4    1
     4     4     5   ar
     5     5     6   ar
     6     6     7   ar
     7     7     8   ar
     8     8     9   ar
     9     9    10   ar
    10    10    11   ar
    11    11    12   ar
    12    12    13   ar
    13    13    14   ar
    14    14    15   ar
    15    15    16   ar
    16     2    17    1
    17    17    18   ar
    18    18    19   ar
    19    19    20   ar
    20    20    21    1
    21    21    22    2
    22    22    23    1
    23    23    24    1
    24    16     1    1
    25    24    17   ar
    26    16     4   ar
    27    24    20   ar
    28    14     6   ar
    29    13     9   ar
    30     1    25    1
    31     1    26    1
    32     3    27    1
    33     5    28    1
    34     7    29    1
    35    10    30    1
    36    11    31    1
    37    15    32    1
    38    19    33    1
    39    21    34    1
    40    22    35    1
    41    23    36    1
    42    23    37    1
