@<TRIPOS>MOLECULE
*****
 36 41 0 0 0
SMALL
GASTEIGER

@<TRIPOS>ATOM
      1 C           0.9090    0.1154    0.5142 C.3     1  UNL1        0.0000
      2 C           1.9450   -0.5821   -0.3664 C.2     1  UNL1        0.0000
      3 C           1.3507   -1.1568   -1.4341 C.2     1  UNL1        0.0000
      4 C          -0.0811   -0.9080   -1.3714 C.ar    1  UNL1        0.0000
      5 C          -1.0810   -1.3090   -2.2553 C.ar    1  UNL1        0.0000
      6 C          -2.4100   -0.9508   -1.9921 C.ar    1  UNL1        0.0000
      7 C          -2.6959   -0.2021   -0.8518 C.ar    1  UNL1        0.0000
      8 C          -1.6629    0.2036    0.0477 C.ar    1  UNL1        0.0000
      9 SI         -2.4057    1.2175    1.5077 Si      1  UNL1        0.0000
     10 C          -4.1092    1.0008    0.7539 C.ar    1  UNL1        0.0000
     11 C          -5.4364    1.3386    0.9839 C.ar    1  UNL1        0.0000
     12 C          -6.1394    0.7857   -0.0750 C.ar    1  UNL1        0.0000
     13 N          -5.2566    0.1334   -0.9180 N.ar    1  UNL1        0.0000
     14 C          -3.9997    0.2650   -0.4073 C.ar    1  UNL1        0.0000
     15 C          -0.3602   -0.1564   -0.2248 C.ar    1  UNL1        0.0000
     16 C           3.3538   -0.6428   -0.1315 C.ar    1  UNL1        0.0000
     17 S           4.4903   -1.4692   -1.1946 S.2     1  UNL1        0.0000
     18 C           5.8777   -1.0803   -0.2408 C.ar    1  UNL1        0.0000
     19 C           5.4539   -0.3645    0.8126 C.ar    1  UNL1        0.0000
     20 O           6.2330    0.1391    1.8077 O.2     1  UNL1        0.0000
     21 C           5.2609    0.7559    2.5721 C.ar    1  UNL1        0.0000
     22 C           3.9631    0.6285    2.0606 C.ar    1  UNL1        0.0000
     23 C           4.1033   -0.1258    0.8784 C.ar    1  UNL1        0.0000
     24 H           1.1071    1.1903    0.5712 H       1  UNL1        0.0000
     25 H           0.8842   -0.3303    1.5135 H       1  UNL1        0.0000
     26 H           1.8040   -1.7194   -2.2349 H       1  UNL1        0.0000
     27 H          -0.8373   -1.8919   -3.1382 H       1  UNL1        0.0000
     28 H          -3.1967   -1.2573   -2.6730 H       1  UNL1        0.0000
     29 H          -2.2037    0.5085    2.7985 H       1  UNL1        0.0000
     30 H          -1.8943    2.6133    1.4944 H       1  UNL1        0.0000
     31 H          -5.8620    1.9072    1.8004 H       1  UNL1        0.0000
     32 H          -7.1961    0.7979   -0.3063 H       1  UNL1        0.0000
     33 H          -5.5065   -0.3558   -1.7667 H       1  UNL1        0.0000
     34 H           6.8844   -1.3821   -0.4894 H       1  UNL1        0.0000
     35 H           5.6463    1.2480    3.4558 H       1  UNL1        0.0000
     36 H           3.0678    1.0361    2.5060 H       1  UNL1        0.0000
@<TRIPOS>BOND
     1     1     2    1
     2     2     3    2
     3     3     4    1
     4     4     5   ar
     5     5     6   ar
     6     6     7   ar
     7     7     8   ar
     8     8     9    1
     9     9    10    1
    10    10    11   ar
    11    11    12   ar
    12    12    13   ar
    13    13    14   ar
    14     8    15   ar
    15     2    16    1
    16    16    17   ar
    17    17    18   ar
    18    18    19   ar
    19    19    20   ar
    20    20    21   ar
    21    21    22   ar
    22    22    23   ar
    23    15     1    1
    24    23    16   ar
    25    15     4   ar
    26    23    19   ar
    27     7    14    1
    28    14    10   ar
    29     1    24    1
    30     1    25    1
    31     3    26    1
    32     5    27    1
    33     6    28    1
    34     9    29    1
    35     9    30    1
    36    11    31    1
    37    12    32    1
    38    13    33    1
    39    18    34    1
    40    21    35    1
    41    22    36    1
