@<TRIPOS>MOLECULE
*****
 50 57 0 0 0
SMALL
GASTEIGER

@<TRIPOS>ATOM
      1 C           1.7575   -0.2998   -0.6070 C.3     1  UNL1       -0.0007
      2 C           2.8003    0.1889    0.3753 C.2     1  UNL1       -0.0347
      3 C           2.2573    0.5858    1.5384 C.2     1  UNL1       -0.0502
      4 C           0.8196    0.4240    1.4237 C.ar    1  UNL1       -0.0206
      5 C          -0.1551    0.6823    2.3565 C.ar    1  UNL1       -0.0537
      6 C          -1.4943    0.4408    2.0107 C.ar    1  UNL1       -0.0528
      7 C          -1.9263   -0.0405    0.7430 C.ar    1  UNL1       -0.0086
      8 C          -0.8589   -0.3392   -0.1814 C.ar    1  UNL1       -0.0041
      9 C           0.4889   -0.0901    0.1692 C.ar    1  UNL1       -0.0276
     10 C          -1.3445   -0.8966   -1.3934 C.ar    1  UNL1        0.0080
     11 C          -0.6043   -1.3024   -2.4813 C.ar    1  UNL1        0.0100
     12 N          -1.4759   -1.7941   -3.4250 N.ar    1  UNL1       -0.3659
     13 C          -2.7644   -1.7113   -2.9584 C.ar    1  UNL1        0.0100
     14 C          -2.7161   -1.1560   -1.6987 C.ar    1  UNL1        0.0077
     15 C          -3.8202   -0.8793   -0.8664 C.ar    1  UNL1       -0.0075
     16 C          -5.1912   -1.1821   -1.2616 C.ar    1  UNL1       -0.0527
     17 C          -6.3141   -0.8883   -0.4797 C.ar    1  UNL1       -0.0520
     18 C          -5.9243   -0.2487    0.6807 C.ar    1  UNL1        0.0000
     19 C          -6.8156    0.2178    1.6121 C.ar    1  UNL1        0.0094
     20 N          -6.0769    0.8412    2.5835 N.ar    1  UNL1       -0.3659
     21 C          -4.7332    0.7805    2.2699 C.ar    1  UNL1        0.0100
     22 C          -4.5824    0.0613    1.1034 C.ar    1  UNL1        0.0077
     23 C          -3.3728   -0.2587    0.3859 C.ar    1  UNL1       -0.0004
     24 C           4.2176    0.1569    0.0562 C.ar    1  UNL1       -0.0133
     25 C           4.8857   -0.9980   -0.4204 C.ar    1  UNL1       -0.0537
     26 C           6.2821   -1.0461   -0.7371 C.ar    1  UNL1       -0.0606
     27 C           7.1545    0.0557   -0.6203 C.ar    1  UNL1       -0.0535
     28 C           6.4927    1.1970   -0.1677 C.ar    1  UNL1       -0.0103
     29 C           7.1386    2.3963    0.0042 C.ar    1  UNL1       -0.0166
     30 S           6.0535    3.6158    0.5381 S.2     1  UNL1       -0.1039
     31 C           4.7171    2.5328    0.5345 C.ar    1  UNL1       -0.0160
     32 C           5.0854    1.2605    0.1595 C.ar    1  UNL1       -0.0035
     33 H           1.9018   -1.3598   -0.8367 H       1  UNL1        0.0362
     34 H           1.7696    0.3112   -1.5149 H       1  UNL1        0.0362
     35 H           2.7641    0.9480    2.4183 H       1  UNL1        0.0627
     36 H           0.0967    1.0526    3.3448 H       1  UNL1        0.0624
     37 H          -2.2105    0.6083    2.8027 H       1  UNL1        0.0624
     38 H           0.4524   -1.2989   -2.6979 H       1  UNL1        0.0813
     39 H          -1.2072   -2.1609   -4.3290 H       1  UNL1        0.1648
     40 H          -3.5826   -2.0528   -3.5764 H       1  UNL1        0.0813
     41 H          -5.3702   -1.6619   -2.2220 H       1  UNL1        0.0624
     42 H          -7.3282   -1.1071   -0.7788 H       1  UNL1        0.0624
     43 H          -7.8952    0.1859    1.6675 H       1  UNL1        0.0813
     44 H          -6.4596    1.3100    3.3942 H       1  UNL1        0.1648
     45 H          -4.0477    1.2926    2.9234 H       1  UNL1        0.0813
     46 H           4.3163   -1.9207   -0.5395 H       1  UNL1        0.0624
     47 H           6.6925   -1.9944   -1.0862 H       1  UNL1        0.0618
     48 H           8.2065   -0.0015   -0.8662 H       1  UNL1        0.0624
     49 H           8.1804    2.6359   -0.1580 H       1  UNL1        0.0699
     50 H           3.7406    2.9068    0.8082 H       1  UNL1        0.0700
@<TRIPOS>BOND
     1     1     2    1
     2     2     3    2
     3     3     4    1
     4     4     5   ar
     5     5     6   ar
     6     6     7   ar
     7     7     8   ar
     8     8     9   ar
     9     8    10   ar
    10    10    11   ar
    11    11    12   ar
    12    12    13   ar
    13    13    14   ar
    14    14    15   ar
    15    15    16   ar
    16    16    17   ar
    17    17    18   ar
    18    18    19   ar
    19    19    20   ar
    20    20    21   ar
    21    21    22   ar
    22    22    23   ar
    23     2    24    1
    24    24    25   ar
    25    25    26   ar
    26    26    27   ar
    27    27    28   ar
    28    28    29   ar
    29    29    30   ar
    30    30    31   ar
    31    31    32   ar
    32     9     1    1
    33    14    10   ar
    34    23    15   ar
    35    32    24   ar
    36     9     4   ar
    37    22    18   ar
    38    32    28   ar
    39    23     7   ar
    40     1    33    1
    41     1    34    1
    42     3    35    1
    43     5    36    1
    44     6    37    1
    45    11    38    1
    46    12    39    1
    47    13    40    1
    48    16    41    1
    49    17    42    1
    50    19    43    1
    51    20    44    1
    52    21    45    1
    53    25    46    1
    54    26    47    1
    55    27    48    1
    56    29    49    1
    57    31    50    1
