@<TRIPOS>MOLECULE
*****
 46 52 0 0 0
SMALL
GASTEIGER

@<TRIPOS>ATOM
      1 C          -2.5123    0.4247   -0.0646 C.3     1  UNL1        0.0000
      2 C          -3.3954   -0.7635    0.2752 C.2     1  UNL1        0.0000
      3 C          -2.6577   -1.8693    0.4839 C.2     1  UNL1        0.0000
      4 C          -1.2592   -1.5177    0.3137 C.ar    1  UNL1        0.0000
      5 C          -0.1579   -2.3339    0.3931 C.ar    1  UNL1        0.0000
      6 C           1.1058   -1.7652    0.1912 C.ar    1  UNL1        0.0000
      7 C           1.3352   -0.3820   -0.0618 C.ar    1  UNL1        0.0000
      8 C           0.1428    0.4224   -0.2245 C.ar    1  UNL1        0.0000
      9 C          -1.1310   -0.1641   -0.0027 C.ar    1  UNL1        0.0000
     10 C           0.4344    1.7632   -0.6371 C.ar    1  UNL1        0.0000
     11 C          -0.5089    2.7409   -0.8628 C.ar    1  UNL1        0.0000
     12 S           0.1785    4.2163   -1.4007 S.2     1  UNL1        0.0000
     13 C           1.7594    3.5654   -1.3408 C.ar    1  UNL1        0.0000
     14 C           1.7675    2.2541   -0.9163 C.ar    1  UNL1        0.0000
     15 C           2.9321    1.4886   -0.7542 C.ar    1  UNL1        0.0000
     16 C           4.2603    1.9669   -1.1777 C.ar    1  UNL1        0.0000
     17 C           5.3629    1.2351   -0.9612 C.ar    1  UNL1        0.0000
     18 C           5.2684    0.0037   -0.2180 C.ar    1  UNL1        0.0000
     19 C           6.3493   -0.6785    0.2060 C.2     1  UNL1        0.0000
     20 SI          5.8590   -2.0679    1.3405 Si      1  UNL1        0.0000
     21 C           4.0788   -1.5273    1.1234 C.2     1  UNL1        0.0000
     22 C           3.9517   -0.5240    0.2259 C.ar    1  UNL1        0.0000
     23 C           2.6851    0.1805   -0.2042 C.ar    1  UNL1        0.0000
     24 C          -4.8624   -0.6545    0.3448 C.ar    1  UNL1        0.0000
     25 C          -5.5248    0.5480    0.0691 C.ar    1  UNL1        0.0000
     26 C          -6.9164    0.6261    0.1434 C.ar    1  UNL1        0.0000
     27 C          -7.6217   -0.5095    0.4955 C.ar    1  UNL1        0.0000
     28 N          -7.0361   -1.6902    0.7719 N.ar    1  UNL1        0.0000
     29 C          -5.6812   -1.7316    0.6902 C.ar    1  UNL1        0.0000
     30 H          -2.7335    0.7839   -1.0747 H       1  UNL1        0.0000
     31 H          -2.6274    1.2167    0.6822 H       1  UNL1        0.0000
     32 H          -2.9859   -2.8648    0.7345 H       1  UNL1        0.0000
     33 H          -0.2560   -3.3966    0.5896 H       1  UNL1        0.0000
     34 H           1.9363   -2.4655    0.1810 H       1  UNL1        0.0000
     35 H          -1.5796    2.7148   -0.7560 H       1  UNL1        0.0000
     36 H           2.5853    4.2069   -1.6104 H       1  UNL1        0.0000
     37 H           4.3483    2.9003   -1.7190 H       1  UNL1        0.0000
     38 H           6.3353    1.5827   -1.2938 H       1  UNL1        0.0000
     39 H           7.3850   -0.4388    0.0247 H       1  UNL1        0.0000
     40 H           6.3427   -1.8727    2.7283 H       1  UNL1        0.0000
     41 H           6.1134   -3.4057    0.7537 H       1  UNL1        0.0000
     42 H           3.3170   -2.0087    1.7118 H       1  UNL1        0.0000
     43 H          -4.9775    1.4442   -0.2087 H       1  UNL1        0.0000
     44 H          -7.4353    1.5541   -0.0696 H       1  UNL1        0.0000
     45 H          -8.7054   -0.4992    0.5668 H       1  UNL1        0.0000
     46 H          -5.2688   -2.7083    0.9258 H       1  UNL1        0.0000
@<TRIPOS>BOND
     1     1     2    1
     2     2     3    2
     3     3     4    1
     4     4     5   ar
     5     5     6   ar
     6     6     7   ar
     7     7     8   ar
     8     8     9   ar
     9     8    10   ar
    10    10    11   ar
    11    11    12   ar
    12    12    13   ar
    13    13    14   ar
    14    14    15   ar
    15    15    16   ar
    16    16    17   ar
    17    17    18   ar
    18    18    19    2
    19    19    20    1
    20    20    21    1
    21    21    22    2
    22    22    23   ar
    23     2    24    1
    24    24    25   ar
    25    25    26   ar
    26    26    27   ar
    27    27    28   ar
    28    28    29   ar
    29     9     1    1
    30    14    10   ar
    31    23    15   ar
    32    29    24   ar
    33     9     4   ar
    34    22    18   ar
    35    23     7   ar
    36     1    30    1
    37     1    31    1
    38     3    32    1
    39     5    33    1
    40     6    34    1
    41    11    35    1
    42    13    36    1
    43    16    37    1
    44    17    38    1
    45    19    39    1
    46    20    40    1
    47    20    41    1
    48    21    42    1
    49    25    43    1
    50    26    44    1
    51    27    45    1
    52    29    46    1
