@<TRIPOS>MOLECULE
*****
 38 43 0 0 0
SMALL
GASTEIGER

@<TRIPOS>ATOM
      1 C          -1.2911    0.4196   -0.1997 C.3     1  UNL1       -0.0001
      2 C          -2.3552   -0.6172    0.1509 C.2     1  UNL1       -0.0281
      3 C          -1.7784   -1.7510    0.6008 C.2     1  UNL1       -0.0497
      4 C          -0.3360   -1.5800    0.5913 C.ar    1  UNL1       -0.0206
      5 C           0.6528   -2.4635    0.9624 C.ar    1  UNL1       -0.0537
      6 C           1.9861   -2.0468    0.8561 C.ar    1  UNL1       -0.0528
      7 C           2.3561   -0.7513    0.3814 C.ar    1  UNL1       -0.0070
      8 C           1.3097    0.1241    0.0111 C.ar    1  UNL1        0.0049
      9 C           1.6536    1.3903   -0.4536 C.ar    1  UNL1        0.0363
     10 N           2.9161    1.8466   -0.5775 N.ar    1  UNL1       -0.2543
     11 C           3.9157    1.0271   -0.2301 C.ar    1  UNL1        0.0716
     12 C           5.2104    1.5104   -0.3631 C.ar    1  UNL1       -0.0357
     13 C           6.3257    0.7420   -0.0306 C.ar    1  UNL1       -0.0597
     14 C           6.1475   -0.5453    0.4484 C.ar    1  UNL1       -0.0611
     15 C           4.8556   -1.0536    0.5908 C.ar    1  UNL1       -0.0520
     16 C           3.7090   -0.2861    0.2575 C.ar    1  UNL1        0.0081
     17 C          -0.0184   -0.3062    0.1228 C.ar    1  UNL1       -0.0267
     18 C          -3.7705   -0.4539    0.0352 C.ar    1  UNL1        0.0265
     19 S          -4.9390   -1.7020    0.4614 S.2     1  UNL1       -0.0926
     20 C          -6.3176   -0.7458    0.0480 C.ar    1  UNL1        0.0192
     21 C          -5.8679    0.4431   -0.3833 C.ar    1  UNL1        0.1424
     22 O          -6.6324    1.4859   -0.8058 O.2     1  UNL1       -0.4624
     23 C          -5.6363    2.3940   -1.1103 C.ar    1  UNL1        0.0932
     24 C          -4.3384    1.9190   -0.8815 C.ar    1  UNL1       -0.0150
     25 C          -4.5047    0.6074   -0.3931 C.ar    1  UNL1        0.0346
     26 H          -1.3345    0.6772   -1.2627 H       1  UNL1        0.0362
     27 H          -1.3989    1.3133    0.4232 H       1  UNL1        0.0362
     28 H          -2.2516   -2.6638    0.9272 H       1  UNL1        0.0627
     29 H           0.4131   -3.4567    1.3280 H       1  UNL1        0.0624
     30 H           2.7481   -2.7623    1.1552 H       1  UNL1        0.0624
     31 H           0.8966    2.1097   -0.7539 H       1  UNL1        0.0836
     32 H           5.3552    2.5211   -0.7390 H       1  UNL1        0.0639
     33 H           7.3245    1.1535   -0.1478 H       1  UNL1        0.0618
     34 H           7.0073   -1.1560    0.7116 H       1  UNL1        0.0618
     35 H           4.7588   -2.0670    0.9695 H       1  UNL1        0.0624
     36 H          -7.3380   -1.0879    0.1381 H       1  UNL1        0.0731
     37 H          -6.0062    3.3410   -1.4816 H       1  UNL1        0.1030
     38 H          -3.4267    2.4711   -1.0549 H       1  UNL1        0.0655
@<TRIPOS>BOND
     1     1     2    1
     2     2     3    2
     3     3     4    1
     4     4     5   ar
     5     5     6   ar
     6     6     7   ar
     7     7     8   ar
     8     8     9   ar
     9     9    10   ar
    10    10    11   ar
    11    11    12   ar
    12    12    13   ar
    13    13    14   ar
    14    14    15   ar
    15    15    16   ar
    16     8    17   ar
    17     2    18    1
    18    18    19   ar
    19    19    20   ar
    20    20    21   ar
    21    21    22   ar
    22    22    23   ar
    23    23    24   ar
    24    24    25   ar
    25    17     1    1
    26    25    18   ar
    27    17     4   ar
    28    25    21   ar
    29    16     7   ar
    30    16    11   ar
    31     1    26    1
    32     1    27    1
    33     3    28    1
    34     5    29    1
    35     6    30    1
    36     9    31    1
    37    12    32    1
    38    13    33    1
    39    14    34    1
    40    15    35    1
    41    20    36    1
    42    23    37    1
    43    24    38    1
