@<TRIPOS>MOLECULE
*****
 36 41 0 0 0
SMALL
GASTEIGER

@<TRIPOS>ATOM
      1 C           1.4713   -0.2738    0.6142 C.3     1  UNL1        0.0007
      2 C           2.4874    0.2241   -0.4114 C.2     1  UNL1       -0.0192
      3 C           1.8643    0.7588   -1.4810 C.2     1  UNL1       -0.0489
      4 C           0.4278    0.6723   -1.2791 C.ar    1  UNL1       -0.0205
      5 C          -0.5975    1.0926   -2.1094 C.ar    1  UNL1       -0.0537
      6 C          -1.9206    0.9000   -1.6953 C.ar    1  UNL1       -0.0514
      7 C          -2.2084    0.2869   -0.4504 C.ar    1  UNL1        0.0085
      8 C          -3.5532    0.0919   -0.0309 C.ar    1  UNL1        0.0565
      9 N          -4.7688    0.3943   -0.6195 N.ar    1  UNL1       -0.3601
     10 C          -5.8122    0.0024    0.1923 C.ar    1  UNL1        0.0028
     11 C          -5.2906   -0.5674    1.3344 C.ar    1  UNL1       -0.0345
     12 C          -3.9057   -0.4980    1.1681 C.ar    1  UNL1        0.0284
     13 C          -2.8888   -0.9491    2.0609 C.ar    1  UNL1        0.1096
     14 N          -3.1602   -1.5217    3.2237 N.ar    1  UNL1       -0.1901
     15 S          -1.6325   -1.8369    3.8321 S.2     1  UNL1        0.1165
     16 N          -0.6747   -1.2348    2.5971 N.ar    1  UNL1       -0.1901
     17 C          -1.5091   -0.7567    1.6461 C.ar    1  UNL1        0.1085
     18 C          -1.1434   -0.1430    0.3987 C.ar    1  UNL1        0.0163
     19 C           0.1697    0.0649   -0.0461 C.ar    1  UNL1       -0.0260
     20 C           3.9061    0.1807   -0.3503 C.ar    1  UNL1        0.0428
     21 C           4.9298    0.5852   -1.1890 C.ar    1  UNL1       -0.0367
     22 C           6.1610    0.2662   -0.5663 C.ar    1  UNL1       -0.0438
     23 C           5.8653   -0.3259    0.6386 C.ar    1  UNL1        0.0022
     24 N           4.5004   -0.3738    0.7614 N.ar    1  UNL1       -0.3609
     25 H           1.5710   -1.3539    0.7604 H       1  UNL1        0.0362
     26 H           1.5860    0.2639    1.5606 H       1  UNL1        0.0362
     27 H           2.3134    1.1901   -2.3613 H       1  UNL1        0.0627
     28 H          -0.3828    1.5628   -3.0641 H       1  UNL1        0.0624
     29 H          -2.7178    1.2332   -2.3539 H       1  UNL1        0.0624
     30 H          -4.8781    0.8406   -1.5196 H       1  UNL1        0.1654
     31 H          -6.8362    0.1651   -0.1173 H       1  UNL1        0.0807
     32 H          -5.8486   -0.9744    2.1677 H       1  UNL1        0.0639
     33 H           4.8085    1.0621   -2.1526 H       1  UNL1        0.0639
     34 H           7.1534    0.4497   -0.9567 H       1  UNL1        0.0633
     35 H           6.5043   -0.7170    1.4187 H       1  UNL1        0.0807
     36 H           4.0094   -0.7614    1.5557 H       1  UNL1        0.1653
@<TRIPOS>BOND
     1     1     2    1
     2     2     3    2
     3     3     4    1
     4     4     5   ar
     5     5     6   ar
     6     6     7   ar
     7     7     8   ar
     8     8     9   ar
     9     9    10   ar
    10    10    11   ar
    11    11    12   ar
    12    12    13   ar
    13    13    14   ar
    14    14    15   ar
    15    15    16   ar
    16    16    17   ar
    17    17    18   ar
    18    18    19   ar
    19     2    20    1
    20    20    21   ar
    21    21    22   ar
    22    22    23   ar
    23    23    24   ar
    24    19     1    1
    25    24    20   ar
    26    19     4   ar
    27    18     7   ar
    28    12     8   ar
    29    17    13   ar
    30     1    25    1
    31     1    26    1
    32     3    27    1
    33     5    28    1
    34     6    29    1
    35     9    30    1
    36    10    31    1
    37    11    32    1
    38    21    33    1
    39    22    34    1
    40    23    35    1
    41    24    36    1
