@<TRIPOS>MOLECULE
*****
 36 41 0 0 0
SMALL
GASTEIGER

@<TRIPOS>ATOM
      1 SI          1.7700    3.8268    0.9016 Si      1  UNL1        0.0000
      2 C           2.7434    2.2798    0.5130 C.2     1  UNL1        0.0000
      3 C           1.9309    1.2237    0.2912 C.ar    1  UNL1        0.0000
      4 C           2.3918   -0.1485   -0.0484 C.ar    1  UNL1        0.0000
      5 C           1.4630   -1.1178   -0.2598 C.ar    1  UNL1        0.0000
      6 C           0.0962   -0.7531   -0.1473 C.ar    1  UNL1        0.0000
      7 N          -0.9302   -1.6369   -0.3406 N.ar    1  UNL1        0.0000
      8 C          -2.0987   -0.9609   -0.1532 C.ar    1  UNL1        0.0000
      9 C          -1.8555    0.3656    0.1629 C.ar    1  UNL1        0.0000
     10 C          -2.9688    1.1933    0.3857 C.ar    1  UNL1        0.0000
     11 N          -4.2668    0.7813    0.3126 N.ar    1  UNL1        0.0000
     12 C          -4.5362   -0.5081    0.0061 C.ar    1  UNL1        0.0000
     13 C          -5.7643   -1.1938   -0.1348 C.ar    1  UNL1        0.0000
     14 C          -5.4737   -2.5078   -0.4588 C.ar    1  UNL1        0.0000
     15 N          -4.1045   -2.6385   -0.5184 N.ar    1  UNL1        0.0000
     16 C          -3.5481   -1.4316   -0.2376 C.ar    1  UNL1        0.0000
     17 C          -0.4434    0.4860    0.1633 C.ar    1  UNL1        0.0000
     18 C           0.4719    1.5553    0.4020 C.ar    1  UNL1        0.0000
     19 C           0.1995    2.8367    0.7097 C.2     1  UNL1        0.0000
     20 C           3.7658   -0.5380   -0.1319 C.ar    1  UNL1        0.0000
     21 C           4.7239   -0.6184    0.8661 C.ar    1  UNL1        0.0000
     22 N           5.9894   -1.0122    0.4741 N.ar    1  UNL1        0.0000
     23 C           5.9900   -1.2179   -0.8232 C.ar    1  UNL1        0.0000
     24 S           4.5030   -0.9625   -1.6345 S.2     1  UNL1        0.0000
     25 H           1.9805    4.2877    2.2946 H       1  UNL1        0.0000
     26 H           1.9170    4.8644   -0.1466 H       1  UNL1        0.0000
     27 H           3.8212    2.3022    0.4796 H       1  UNL1        0.0000
     28 H           1.7403   -2.1409   -0.4945 H       1  UNL1        0.0000
     29 H          -0.8395   -2.6142   -0.5794 H       1  UNL1        0.0000
     30 H          -2.8492    2.2417    0.6370 H       1  UNL1        0.0000
     31 H          -6.7506   -0.7693   -0.0120 H       1  UNL1        0.0000
     32 H          -6.1198   -3.3540   -0.6504 H       1  UNL1        0.0000
     33 H          -3.6059   -3.4904   -0.7348 H       1  UNL1        0.0000
     34 H          -0.7643    3.2983    0.8369 H       1  UNL1        0.0000
     35 H           4.5438   -0.3971    1.9118 H       1  UNL1        0.0000
     36 H           6.8779   -1.5309   -1.3570 H       1  UNL1        0.0000
@<TRIPOS>BOND
     1     1     2    1
     2     2     3    2
     3     3     4   ar
     4     4     5   ar
     5     5     6   ar
     6     6     7   ar
     7     7     8   ar
     8     8     9   ar
     9     9    10   ar
    10    10    11   ar
    11    11    12   ar
    12    12    13   ar
    13    13    14   ar
    14    14    15   ar
    15    15    16   ar
    16     9    17   ar
    17    17    18   ar
    18    18    19    2
    19     4    20    1
    20    20    21   ar
    21    21    22   ar
    22    22    23   ar
    23    23    24   ar
    24    19     1    1
    25    24    20   ar
    26    18     3   ar
    27    17     6   ar
    28    16     8   ar
    29    16    12   ar
    30     1    25    1
    31     1    26    1
    32     2    27    1
    33     5    28    1
    34     7    29    1
    35    10    30    1
    36    13    31    1
    37    14    32    1
    38    15    33    1
    39    19    34    1
    40    21    35    1
    41    23    36    1
