@<TRIPOS>MOLECULE
*****
 33 37 0 0 0
SMALL
GASTEIGER

@<TRIPOS>ATOM
      1 C           1.1244    0.7642    0.3449 C.3     1  UNL1        0.0036
      2 C           2.3114   -0.1222   -0.0286 C.2     1  UNL1       -0.0191
      3 C           1.8920   -1.3258   -0.4740 C.2     1  UNL1       -0.0488
      4 C           0.4375   -1.3653   -0.4448 C.ar    1  UNL1       -0.0177
      5 C          -0.4208   -2.3907   -0.8090 C.ar    1  UNL1       -0.0535
      6 C          -1.8079   -2.1970   -0.6931 C.ar    1  UNL1       -0.0483
      7 C          -2.3047   -0.9632   -0.2085 C.ar    1  UNL1        0.0465
      8 C          -3.5868   -0.4088    0.0414 C.ar    1  UNL1        0.1166
      9 N          -4.8281   -0.9389   -0.1227 N.ar    1  UNL1       -0.2512
     10 C          -5.8359   -0.1047    0.2254 C.ar    1  UNL1        0.0285
     11 C          -5.6897    1.1916    0.7143 C.ar    1  UNL1       -0.0401
     12 C          -4.4122    1.7258    0.8789 C.ar    1  UNL1       -0.0158
     13 C          -3.3717    0.8777    0.5246 C.ar    1  UNL1        0.1544
     14 O          -2.0401    1.1524    0.5887 O.2     1  UNL1       -0.4529
     15 C          -1.3968    0.0368    0.1446 C.ar    1  UNL1        0.1418
     16 C          -0.0292   -0.1372    0.0368 C.ar    1  UNL1        0.0070
     17 C           3.6995    0.1742    0.0420 C.ar    1  UNL1        0.0428
     18 C           4.8586   -0.5194   -0.2588 C.ar    1  UNL1       -0.0367
     19 C           5.9618    0.3206    0.0283 C.ar    1  UNL1       -0.0438
     20 C           5.4555    1.5092    0.4981 C.ar    1  UNL1        0.0022
     21 N           4.0877    1.4122    0.5031 N.ar    1  UNL1       -0.3609
     22 H           1.1440    1.0250    1.4075 H       1  UNL1        0.0363
     23 H           1.0929    1.6654   -0.2749 H       1  UNL1        0.0363
     24 H           2.4961   -2.1546   -0.8078 H       1  UNL1        0.0627
     25 H          -0.0338   -3.3352   -1.1802 H       1  UNL1        0.0624
     26 H          -2.5008   -2.9864   -0.9726 H       1  UNL1        0.0625
     27 H          -6.8309   -0.5262    0.0951 H       1  UNL1        0.0830
     28 H          -6.5670    1.7801    0.9648 H       1  UNL1        0.0634
     29 H          -4.2362    2.7252    1.2539 H       1  UNL1        0.0655
     30 H           4.9110   -1.5285   -0.6461 H       1  UNL1        0.0639
     31 H           7.0100    0.0816   -0.0954 H       1  UNL1        0.0633
     32 H           5.9471    2.4141    0.8288 H       1  UNL1        0.0807
     33 H           3.4633    2.1480    0.8036 H       1  UNL1        0.1653
@<TRIPOS>BOND
     1     1     2    1
     2     2     3    2
     3     3     4    1
     4     4     5   ar
     5     5     6   ar
     6     6     7   ar
     7     7     8   ar
     8     8     9   ar
     9     9    10   ar
    10    10    11   ar
    11    11    12   ar
    12    12    13   ar
    13    13    14   ar
    14    14    15   ar
    15    15    16   ar
    16     2    17    1
    17    17    18   ar
    18    18    19   ar
    19    19    20   ar
    20    20    21   ar
    21    16     1    1
    22    21    17   ar
    23    16     4   ar
    24    15     7   ar
    25    13     8   ar
    26     1    22    1
    27     1    23    1
    28     3    24    1
    29     5    25    1
    30     6    26    1
    31    10    27    1
    32    11    28    1
    33    12    29    1
    34    18    30    1
    35    19    31    1
    36    20    32    1
    37    21    33    1
