@<TRIPOS>MOLECULE
*****
 36 41 0 0 0
SMALL
GASTEIGER

@<TRIPOS>ATOM
      1 C          -0.6652    0.1676    0.1308 C.3     1  UNL1       -0.0001
      2 C          -1.4861   -1.1188    0.2248 C.2     1  UNL1       -0.0266
      3 C          -0.6733   -2.1965    0.2520 C.2     1  UNL1       -0.0497
      4 C           0.7079   -1.7495    0.1816 C.ar    1  UNL1       -0.0206
      5 C           1.8697   -2.4994    0.1799 C.ar    1  UNL1       -0.0537
      6 C           3.0928   -1.8269    0.1034 C.ar    1  UNL1       -0.0523
      7 C           3.1415   -0.4075    0.0291 C.ar    1  UNL1       -0.0004
      8 C           4.3645    0.3179   -0.0501 C.ar    1  UNL1        0.0452
      9 S           5.9966   -0.2537   -0.0771 S.2     1  UNL1       -0.0945
     10 C           6.6362    1.3242   -0.1799 C.ar    1  UNL1       -0.0217
     11 C           5.6475    2.2786   -0.1946 C.ar    1  UNL1       -0.0287
     12 C           4.3400    1.7143   -0.1207 C.ar    1  UNL1        0.0786
     13 N           3.1931    2.4443   -0.1184 N.ar    1  UNL1       -0.2538
     14 C           2.0490    1.7359   -0.0428 C.ar    1  UNL1        0.0363
     15 C           1.9497    0.3466    0.0316 C.ar    1  UNL1        0.0054
     16 C           0.7412   -0.3534    0.1091 C.ar    1  UNL1       -0.0267
     17 C          -2.9197   -1.2064    0.2785 C.ar    1  UNL1        0.0431
     18 S          -3.7639   -2.7247    0.3856 S.2     1  UNL1       -0.0926
     19 C          -5.3100   -1.9959    0.4012 C.ar    1  UNL1        0.0038
     20 C          -5.2166   -0.6335    0.3280 C.ar    1  UNL1        0.0968
     21 N          -6.3085    0.1804    0.3236 N.ar    1  UNL1       -0.2514
     22 C          -5.9346    1.4857    0.2437 C.ar    1  UNL1        0.0464
     23 C          -4.6131    1.9414    0.1749 C.ar    1  UNL1        0.0464
     24 N          -3.5069    1.1479    0.1777 N.ar    1  UNL1       -0.2508
     25 C          -3.8487   -0.1749    0.2574 C.ar    1  UNL1        0.1036
     26 H          -0.8286    0.8011    1.0084 H       1  UNL1        0.0362
     27 H          -0.8906    0.7090   -0.7934 H       1  UNL1        0.0362
     28 H          -0.9382   -3.2402    0.3144 H       1  UNL1        0.0627
     29 H           1.8396   -3.5827    0.2363 H       1  UNL1        0.0624
     30 H           4.0083   -2.4142    0.1019 H       1  UNL1        0.0624
     31 H           7.7057    1.4786   -0.2247 H       1  UNL1        0.0694
     32 H           5.8391    3.3418   -0.2556 H       1  UNL1        0.0644
     33 H           1.1544    2.3552   -0.0436 H       1  UNL1        0.0836
     34 H          -6.2069   -2.5948    0.4627 H       1  UNL1        0.0715
     35 H          -6.7570    2.1957    0.2354 H       1  UNL1        0.0845
     36 H          -4.4089    3.0068    0.1131 H       1  UNL1        0.0845
@<TRIPOS>BOND
     1     1     2    1
     2     2     3    2
     3     3     4    1
     4     4     5   ar
     5     5     6   ar
     6     6     7   ar
     7     7     8   ar
     8     8     9   ar
     9     9    10   ar
    10    10    11   ar
    11    11    12   ar
    12    12    13   ar
    13    13    14   ar
    14    14    15   ar
    15    15    16   ar
    16     2    17    1
    17    17    18   ar
    18    18    19   ar
    19    19    20   ar
    20    20    21   ar
    21    21    22   ar
    22    22    23   ar
    23    23    24   ar
    24    24    25   ar
    25    16     1    1
    26    25    17   ar
    27    16     4   ar
    28    25    20   ar
    29    15     7   ar
    30    12     8   ar
    31     1    26    1
    32     1    27    1
    33     3    28    1
    34     5    29    1
    35     6    30    1
    36    10    31    1
    37    11    32    1
    38    14    33    1
    39    19    34    1
    40    22    35    1
    41    23    36    1
