@<TRIPOS>MOLECULE
*****
 36 40 0 0 0
SMALL
GASTEIGER

@<TRIPOS>ATOM
      1 C          -1.2355   -0.4941   -0.5272 C.3     1  UNL1        0.0000
      2 C          -2.5754   -0.0404    0.0517 C.2     1  UNL1        0.0000
      3 C          -2.3853    0.8340    1.0608 C.2     1  UNL1        0.0000
      4 C          -0.9563    1.0366    1.2417 C.ar    1  UNL1        0.0000
      5 C          -0.2996    1.8413    2.1520 C.ar    1  UNL1        0.0000
      6 C           1.0979    1.8651    2.1263 C.ar    1  UNL1        0.0000
      7 C           1.8329    1.0923    1.1997 C.ar    1  UNL1        0.0000
      8 C           3.2381    1.1319    1.1919 C.ar    1  UNL1        0.0000
      9 C           3.9488    0.3662    0.2745 C.ar    1  UNL1        0.0000
     10 C           5.4170    0.3261    0.1716 C.2     1  UNL1        0.0000
     11 C           5.8736   -0.4906   -0.7952 C.2     1  UNL1        0.0000
     12 SI          4.4970   -1.3502   -1.7420 Si      1  UNL1        0.0000
     13 C           3.2638   -0.4510   -0.6494 C.ar    1  UNL1        0.0000
     14 C           1.8738   -0.5067   -0.6609 C.ar    1  UNL1        0.0000
     15 C           1.1453    0.2656    0.2649 C.ar    1  UNL1        0.0000
     16 C          -0.2514    0.2624    0.3146 C.ar    1  UNL1        0.0000
     17 C          -3.8597   -0.4638   -0.3914 C.ar    1  UNL1        0.0000
     18 C          -4.2412   -1.3382   -1.3943 C.ar    1  UNL1        0.0000
     19 C          -5.6551   -1.4010   -1.4126 C.ar    1  UNL1        0.0000
     20 C          -6.1099   -0.5644   -0.4214 C.ar    1  UNL1        0.0000
     21 N          -5.0187   -0.0022    0.1908 N.ar    1  UNL1        0.0000
     22 H          -1.1074   -1.5746   -0.4060 H       1  UNL1        0.0000
     23 H          -1.1524   -0.2087   -1.5808 H       1  UNL1        0.0000
     24 H          -3.1153    1.3363    1.6727 H       1  UNL1        0.0000
     25 H          -0.8467    2.4416    2.8710 H       1  UNL1        0.0000
     26 H           1.6201    2.4977    2.8417 H       1  UNL1        0.0000
     27 H           3.7743    1.7583    1.8997 H       1  UNL1        0.0000
     28 H           6.0462    0.9117    0.8284 H       1  UNL1        0.0000
     29 H           6.9085   -0.6697   -1.0431 H       1  UNL1        0.0000
     30 H           4.4998   -2.8185   -1.5245 H       1  UNL1        0.0000
     31 H           4.4372   -0.9166   -3.1603 H       1  UNL1        0.0000
     32 H           1.3598   -1.1407   -1.3783 H       1  UNL1        0.0000
     33 H          -3.5695   -1.8783   -2.0489 H       1  UNL1        0.0000
     34 H          -6.2717   -1.9923   -2.0769 H       1  UNL1        0.0000
     35 H          -7.1122   -0.3192   -0.0972 H       1  UNL1        0.0000
     36 H          -5.0707    0.6540    0.9566 H       1  UNL1        0.0000
@<TRIPOS>BOND
     1     1     2    1
     2     2     3    2
     3     3     4    1
     4     4     5   ar
     5     5     6   ar
     6     6     7   ar
     7     7     8   ar
     8     8     9   ar
     9     9    10    1
    10    10    11    2
    11    11    12    1
    12    12    13    1
    13    13    14   ar
    14    14    15   ar
    15    15    16   ar
    16     2    17    1
    17    17    18   ar
    18    18    19   ar
    19    19    20   ar
    20    20    21   ar
    21    16     1    1
    22    21    17   ar
    23    16     4   ar
    24    15     7   ar
    25    13     9   ar
    26     1    22    1
    27     1    23    1
    28     3    24    1
    29     5    25    1
    30     6    26    1
    31     8    27    1
    32    10    28    1
    33    11    29    1
    34    12    30    1
    35    12    31    1
    36    14    32    1
    37    18    33    1
    38    19    34    1
    39    20    35    1
    40    21    36    1
