@<TRIPOS>MOLECULE
*****
 43 50 0 0 0
SMALL
GASTEIGER

@<TRIPOS>ATOM
      1 C           1.4981   -0.1990    0.1364 C.3     1  UNL1       -0.0001
      2 C           2.5718    0.7491   -0.3933 C.2     1  UNL1       -0.0281
      3 C           2.0044    1.8142   -0.9961 C.2     1  UNL1       -0.0483
      4 C           0.5637    1.6695   -0.9207 C.ar    1  UNL1       -0.0025
      5 C          -0.4466    2.4717   -1.3770 C.ar    1  UNL1        0.0357
      6 N          -1.7562    2.1622   -1.2080 N.ar    1  UNL1       -0.2537
      7 C          -2.1402    1.0285   -0.5705 C.ar    1  UNL1        0.0818
      8 C          -1.1162    0.1527   -0.0727 C.ar    1  UNL1        0.0158
      9 C           0.2346    0.4963   -0.2609 C.ar    1  UNL1       -0.0246
     10 C          -1.6457   -0.9912    0.5698 C.ar    1  UNL1        0.0299
     11 C          -0.9706   -2.0309    1.1585 C.ar    1  UNL1        0.1000
     12 O          -1.8585   -2.9362    1.6650 O.2     1  UNL1       -0.4698
     13 C          -3.1123   -2.4702    1.3974 C.ar    1  UNL1        0.1000
     14 C          -3.0317   -1.2763    0.7249 C.ar    1  UNL1        0.0283
     15 C          -4.0899   -0.4710    0.2667 C.ar    1  UNL1       -0.0029
     16 C          -5.4721   -0.7945    0.4436 C.ar    1  UNL1       -0.0511
     17 C          -6.4961    0.0292   -0.0248 C.ar    1  UNL1       -0.0329
     18 C          -6.0922    1.2084   -0.6877 C.ar    1  UNL1        0.1006
     19 N          -6.9434    2.1110   -1.1998 N.ar    1  UNL1       -0.1908
     20 S          -6.0150    3.3059   -1.8695 S.2     1  UNL1        0.1165
     21 N          -4.5027    2.7352   -1.5419 N.ar    1  UNL1       -0.1901
     22 C          -4.6262    1.5669   -0.8839 C.ar    1  UNL1        0.1096
     23 C          -3.5601    0.7132   -0.3986 C.ar    1  UNL1        0.0369
     24 C           3.9850    0.5711   -0.2868 C.ar    1  UNL1        0.0249
     25 S           5.1690    1.7060   -0.9203 S.2     1  UNL1       -0.0943
     26 C           6.5374    0.7844   -0.3952 C.ar    1  UNL1        0.0002
     27 C           6.0754   -0.3176    0.2231 C.ar    1  UNL1        0.0542
     28 N           6.8226   -1.3106    0.7856 N.ar    1  UNL1       -0.3602
     29 C           5.8271   -2.1614    1.2600 C.ar    1  UNL1        0.0028
     30 C           4.5384   -1.6623    0.9731 C.ar    1  UNL1       -0.0356
     31 C           4.7050   -0.4310    0.2807 C.ar    1  UNL1        0.0141
     32 H           1.5775   -1.1769   -0.3487 H       1  UNL1        0.0362
     33 H           1.5707   -0.2903    1.2246 H       1  UNL1        0.0362
     34 H           2.4843    2.6566   -1.4688 H       1  UNL1        0.0627
     35 H          -0.2545    3.4022   -1.9006 H       1  UNL1        0.0836
     36 H           0.0672   -2.2890    1.3081 H       1  UNL1        0.1036
     37 H          -3.9181   -3.0993    1.7487 H       1  UNL1        0.1036
     38 H          -5.7556   -1.7111    0.9590 H       1  UNL1        0.0624
     39 H          -7.5435   -0.2140    0.1082 H       1  UNL1        0.0640
     40 H           7.5554    1.1023   -0.5695 H       1  UNL1        0.0714
     41 H           7.8316   -1.3833    0.8312 H       1  UNL1        0.1653
     42 H           6.1156   -3.0701    1.7730 H       1  UNL1        0.0807
     43 H           3.6124   -2.1505    1.2437 H       1  UNL1        0.0639
@<TRIPOS>BOND
     1     1     2    1
     2     2     3    2
     3     3     4    1
     4     4     5   ar
     5     5     6   ar
     6     6     7   ar
     7     7     8   ar
     8     8     9   ar
     9     8    10   ar
    10    10    11   ar
    11    11    12   ar
    12    12    13   ar
    13    13    14   ar
    14    14    15   ar
    15    15    16   ar
    16    16    17   ar
    17    17    18   ar
    18    18    19   ar
    19    19    20   ar
    20    20    21   ar
    21    21    22   ar
    22    22    23   ar
    23     2    24    1
    24    24    25   ar
    25    25    26   ar
    26    26    27   ar
    27    27    28   ar
    28    28    29   ar
    29    29    30   ar
    30    30    31   ar
    31     9     1    1
    32    14    10   ar
    33    23    15   ar
    34    31    24   ar
    35     9     4   ar
    36    22    18   ar
    37    31    27   ar
    38    23     7   ar
    39     1    32    1
    40     1    33    1
    41     3    34    1
    42     5    35    1
    43    11    36    1
    44    13    37    1
    45    16    38    1
    46    17    39    1
    47    26    40    1
    48    28    41    1
    49    29    42    1
    50    30    43    1
