@<TRIPOS>MOLECULE
*****
 41 48 0 0 0
SMALL
GASTEIGER

@<TRIPOS>ATOM
      1 C           1.4553    0.2074    0.0240 C.3     1  UNL1        0.0000
      2 C           2.4077   -0.9497   -0.2755 C.2     1  UNL1       -0.0267
      3 C           1.7031   -2.0895   -0.4521 C.2     1  UNL1       -0.0482
      4 C           0.2920   -1.8005   -0.2929 C.ar    1  UNL1       -0.0025
      5 C          -0.8137   -2.6005   -0.3729 C.ar    1  UNL1        0.0357
      6 N          -2.0686   -2.1203   -0.1867 N.ar    1  UNL1       -0.2536
      7 C          -2.2909   -0.8110    0.0906 C.ar    1  UNL1        0.0833
      8 C          -1.1736    0.0663    0.1852 C.ar    1  UNL1        0.0333
      9 C           0.1139   -0.4573   -0.0120 C.ar    1  UNL1       -0.0231
     10 C          -1.4235    1.4477    0.4788 C.ar    1  UNL1        0.1099
     11 N          -0.4993    2.4190    0.6060 N.ar    1  UNL1       -0.1901
     12 S          -1.3097    3.8215    0.9442 S.2     1  UNL1        0.1165
     13 N          -2.8682    3.2693    0.9464 N.ar    1  UNL1       -0.1901
     14 C          -2.8235    1.9510    0.6801 C.ar    1  UNL1        0.1083
     15 C          -3.9450    1.0697    0.5849 C.ar    1  UNL1        0.0145
     16 C          -5.2633    1.5867    0.7830 C.ar    1  UNL1       -0.0497
     17 C          -6.4119    0.7951    0.7078 C.ar    1  UNL1       -0.0328
     18 C          -6.2024   -0.5694    0.4204 C.ar    1  UNL1        0.1006
     19 N          -7.1838   -1.4774    0.3099 N.ar    1  UNL1       -0.1908
     20 S          -6.4523   -2.9223   -0.0311 S.2     1  UNL1        0.1165
     21 N          -4.8679   -2.4611   -0.0531 N.ar    1  UNL1       -0.1901
     22 C          -4.8111   -1.1416    0.2061 C.ar    1  UNL1        0.1097
     23 C          -3.6256   -0.3094    0.2868 C.ar    1  UNL1        0.0384
     24 C           3.8322   -0.9210   -0.3724 C.ar    1  UNL1        0.0395
     25 S           4.8411   -2.3100   -0.7219 S.2     1  UNL1       -0.0943
     26 C           6.3211   -1.4172   -0.6505 C.ar    1  UNL1       -0.0145
     27 C           6.0051   -0.1390   -0.3730 C.ar    1  UNL1        0.0073
     28 C           6.6336    1.1105   -0.1691 C.ar    1  UNL1       -0.0361
     29 C           5.6116    2.0439    0.0906 C.ar    1  UNL1        0.0028
     30 N           4.3514    1.4482    0.0626 N.ar    1  UNL1       -0.3598
     31 C           4.6633    0.1444   -0.2198 C.ar    1  UNL1        0.0611
     32 H           1.6557    0.6218    1.0170 H       1  UNL1        0.0362
     33 H           1.5282    0.9749   -0.7530 H       1  UNL1        0.0362
     34 H           2.0701   -3.0793   -0.6760 H       1  UNL1        0.0627
     35 H          -0.7480   -3.6615   -0.5893 H       1  UNL1        0.0836
     36 H          -5.3949    2.6481    1.0043 H       1  UNL1        0.0625
     37 H          -7.4059    1.1987    0.8599 H       1  UNL1        0.0640
     38 H           7.2801   -1.8867   -0.8132 H       1  UNL1        0.0700
     39 H           7.6919    1.3331   -0.2009 H       1  UNL1        0.0639
     40 H           5.6833    3.1042    0.2968 H       1  UNL1        0.0807
     41 H           3.4423    1.8634    0.2108 H       1  UNL1        0.1654
@<TRIPOS>BOND
     1     1     2    1
     2     2     3    2
     3     3     4    1
     4     4     5   ar
     5     5     6   ar
     6     6     7   ar
     7     7     8   ar
     8     8     9   ar
     9     8    10   ar
    10    10    11   ar
    11    11    12   ar
    12    12    13   ar
    13    13    14   ar
    14    14    15   ar
    15    15    16   ar
    16    16    17   ar
    17    17    18   ar
    18    18    19   ar
    19    19    20   ar
    20    20    21   ar
    21    21    22   ar
    22    22    23   ar
    23     2    24    1
    24    24    25   ar
    25    25    26   ar
    26    26    27   ar
    27    27    28   ar
    28    28    29   ar
    29    29    30   ar
    30    30    31   ar
    31     9     1    1
    32    14    10   ar
    33    23    15   ar
    34    31    24   ar
    35     9     4   ar
    36    22    18   ar
    37    31    27   ar
    38    23     7   ar
    39     1    32    1
    40     1    33    1
    41     3    34    1
    42     5    35    1
    43    16    36    1
    44    17    37    1
    45    26    38    1
    46    28    39    1
    47    29    40    1
    48    30    41    1
