@<TRIPOS>MOLECULE
*****
 46 52 0 0 0
SMALL
GASTEIGER

@<TRIPOS>ATOM
      1 C           1.7153   -0.8315    1.1907 C.3     1  UNL1        0.0000
      2 C           2.8148   -0.0319    0.4807 C.2     1  UNL1        0.0000
      3 C           2.2746    0.7384   -0.4853 C.2     1  UNL1        0.0000
      4 C           0.8393    0.5285   -0.5011 C.ar    1  UNL1        0.0000
      5 C          -0.1435    1.0650   -1.2809 C.ar    1  UNL1        0.0000
      6 N          -1.4466    0.7281   -1.1299 N.ar    1  UNL1        0.0000
      7 C          -1.8458   -0.1701   -0.1849 C.ar    1  UNL1        0.0000
      8 C          -0.8577   -0.7582    0.6543 C.ar    1  UNL1        0.0000
      9 C          -1.2040   -1.6829    1.6389 C.ar    1  UNL1        0.0000
     10 C          -2.5281   -2.0423    1.8119 C.ar    1  UNL1        0.0000
     11 C          -3.5270   -1.4894    1.0107 C.ar    1  UNL1        0.0000
     12 C          -4.8360   -1.9073    1.2529 C.ar    1  UNL1        0.0000
     13 C          -5.8945   -1.4126    0.5069 C.ar    1  UNL1        0.0000
     14 C          -5.6759   -0.4838   -0.5054 C.ar    1  UNL1        0.0000
     15 C          -6.7890   -0.0182   -1.2283 C.ar    1  UNL1        0.0000
     16 C          -6.6466    0.9093   -2.2528 C.ar    1  UNL1        0.0000
     17 C          -5.3843    1.3797   -2.5627 C.ar    1  UNL1        0.0000
     18 C          -4.2721    0.9200   -1.8465 C.ar    1  UNL1        0.0000
     19 C          -4.3576   -0.0274   -0.7894 C.ar    1  UNL1        0.0000
     20 C          -3.2269   -0.5391   -0.0112 C.ar    1  UNL1        0.0000
     21 C           0.4767   -0.3878    0.4708 C.ar    1  UNL1        0.0000
     22 C           4.2210   -0.0591    0.7593 C.ar    1  UNL1        0.0000
     23 S           4.7872   -1.1107    2.0472 S.2     1  UNL1        0.0000
     24 C           6.4361   -0.6775    1.8484 C.ar    1  UNL1        0.0000
     25 C           6.5747    0.2343    0.8424 C.ar    1  UNL1        0.0000
     26 C           7.7577    0.8643    0.3390 C.2     1  UNL1        0.0000
     27 C           7.5535    1.7303   -0.6755 C.2     1  UNL1        0.0000
     28 SI          5.7088    1.8364   -1.1203 Si      1  UNL1        0.0000
     29 C           5.3254    0.5724    0.2403 C.ar    1  UNL1        0.0000
     30 H           1.6629   -0.5648    2.2513 H       1  UNL1        0.0000
     31 H           1.8722   -1.9076    1.0634 H       1  UNL1        0.0000
     32 H           2.7540    1.4166   -1.1674 H       1  UNL1        0.0000
     33 H           0.0649    1.7880   -2.0614 H       1  UNL1        0.0000
     34 H          -0.4528   -2.1344    2.2818 H       1  UNL1        0.0000
     35 H          -2.7707   -2.7664    2.5880 H       1  UNL1        0.0000
     36 H          -5.0551   -2.6326    2.0347 H       1  UNL1        0.0000
     37 H          -6.8988   -1.7666    0.7305 H       1  UNL1        0.0000
     38 H          -7.7888   -0.3797   -0.9954 H       1  UNL1        0.0000
     39 H          -7.5152    1.2596   -2.8022 H       1  UNL1        0.0000
     40 H          -5.2491    2.1054   -3.3602 H       1  UNL1        0.0000
     41 H          -3.3159    1.3346   -2.1474 H       1  UNL1        0.0000
     42 H           7.1972   -1.1162    2.4782 H       1  UNL1        0.0000
     43 H           8.7388    0.6540    0.7495 H       1  UNL1        0.0000
     44 H           8.2924    2.3119   -1.2025 H       1  UNL1        0.0000
     45 H           5.4519    1.3321   -2.4923 H       1  UNL1        0.0000
     46 H           5.1624    3.1893   -0.8486 H       1  UNL1        0.0000
@<TRIPOS>BOND
     1     1     2    1
     2     2     3    2
     3     3     4    1
     4     4     5   ar
     5     5     6   ar
     6     6     7   ar
     7     7     8   ar
     8     8     9   ar
     9     9    10   ar
    10    10    11   ar
    11    11    12   ar
    12    12    13   ar
    13    13    14   ar
    14    14    15   ar
    15    15    16   ar
    16    16    17   ar
    17    17    18   ar
    18    18    19   ar
    19    19    20   ar
    20     8    21   ar
    21     2    22    1
    22    22    23   ar
    23    23    24   ar
    24    24    25   ar
    25    25    26    1
    26    26    27    2
    27    27    28    1
    28    28    29    1
    29    21     1    1
    30    29    22   ar
    31    21     4   ar
    32    29    25   ar
    33    20     7   ar
    34    20    11   ar
    35    19    14   ar
    36     1    30    1
    37     1    31    1
    38     3    32    1
    39     5    33    1
    40     9    34    1
    41    10    35    1
    42    12    36    1
    43    13    37    1
    44    15    38    1
    45    16    39    1
    46    17    40    1
    47    18    41    1
    48    24    42    1
    49    26    43    1
    50    27    44    1
    51    28    45    1
    52    28    46    1
