@<TRIPOS>MOLECULE
*****
 44 50 0 0 0
SMALL
GASTEIGER

@<TRIPOS>ATOM
      1 C          -1.5648    0.3999   -0.0445 C.3     1  UNL1        0.0009
      2 C          -2.4021   -0.8649   -0.1458 C.2     1  UNL1       -0.0345
      3 C          -1.6194   -1.9647   -0.1094 C.2     1  UNL1       -0.0487
      4 C          -0.2377   -1.5427    0.0153 C.ar    1  UNL1       -0.0011
      5 C           0.9284   -2.2528    0.0932 C.ar    1  UNL1        0.0358
      6 N           2.1271   -1.6389    0.2075 N.ar    1  UNL1       -0.2522
      7 C           2.1779   -0.2686    0.2467 C.ar    1  UNL1        0.0978
      8 C           1.0130    0.5286    0.1713 C.ar    1  UNL1        0.0938
      9 N           0.9959    1.8769    0.2044 N.ar    1  UNL1       -0.2525
     10 C           2.1801    2.5186    0.3182 C.ar    1  UNL1        0.0361
     11 C           3.4172    1.8983    0.4041 C.ar    1  UNL1        0.0029
     12 C           4.6266    2.6883    0.5237 C.ar    1  UNL1       -0.0519
     13 C           5.9328    2.1610    0.6174 C.ar    1  UNL1       -0.0520
     14 C           5.8929    0.7783    0.5787 C.ar    1  UNL1        0.0001
     15 C           6.9873   -0.0445    0.6474 C.ar    1  UNL1        0.0094
     16 N           6.5175   -1.3373    0.5756 N.ar    1  UNL1       -0.3659
     17 C           5.1440   -1.3382    0.4629 C.ar    1  UNL1        0.0101
     18 C           4.7213   -0.0302    0.4617 C.ar    1  UNL1        0.0092
     19 C           3.3895    0.4637    0.3650 C.ar    1  UNL1        0.0201
     20 C          -0.1768   -0.1552    0.0558 C.ar    1  UNL1       -0.0070
     21 C          -3.8626   -0.8810   -0.2666 C.ar    1  UNL1       -0.0108
     22 C          -4.6481   -2.0703   -0.3606 C.ar    1  UNL1       -0.0536
     23 C          -6.0841   -2.1188   -0.4803 C.ar    1  UNL1       -0.0605
     24 C          -6.9116   -0.9813   -0.5207 C.ar    1  UNL1       -0.0510
     25 C          -6.1431    0.1680   -0.4290 C.ar    1  UNL1        0.0204
     26 C          -6.6225    1.4493   -0.4372 C.ar    1  UNL1        0.0994
     27 O          -5.5792    2.3206   -0.3296 O.2     1  UNL1       -0.4698
     28 C          -4.4296    1.5814   -0.2529 C.ar    1  UNL1        0.1000
     29 C          -4.7137    0.2377   -0.3093 C.ar    1  UNL1        0.0272
     30 H          -1.8069    0.9676    0.8593 H       1  UNL1        0.0362
     31 H          -1.6579    1.0135   -0.9459 H       1  UNL1        0.0362
     32 H          -1.9104   -3.0011   -0.1599 H       1  UNL1        0.0627
     33 H           0.9523   -3.3362    0.0674 H       1  UNL1        0.0836
     34 H           2.0928    3.6028    0.3388 H       1  UNL1        0.0836
     35 H           4.5333    3.7762    0.5439 H       1  UNL1        0.0624
     36 H           6.8212    2.7690    0.7059 H       1  UNL1        0.0624
     37 H           8.0462    0.1545    0.7394 H       1  UNL1        0.0813
     38 H           7.0940   -2.1682    0.6016 H       1  UNL1        0.1648
     39 H           4.6048   -2.2735    0.3945 H       1  UNL1        0.0813
     40 H          -4.1464   -3.0381   -0.3429 H       1  UNL1        0.0624
     41 H          -6.5539   -3.1014   -0.5433 H       1  UNL1        0.0618
     42 H          -7.9873   -1.0243   -0.6106 H       1  UNL1        0.0625
     43 H          -7.6026    1.8990   -0.5070 H       1  UNL1        0.1035
     44 H          -3.5356    2.1791   -0.1643 H       1  UNL1        0.1036
@<TRIPOS>BOND
     1     1     2    1
     2     2     3    2
     3     3     4    1
     4     4     5   ar
     5     5     6   ar
     6     6     7   ar
     7     7     8   ar
     8     8     9   ar
     9     9    10   ar
    10    10    11   ar
    11    11    12   ar
    12    12    13   ar
    13    13    14   ar
    14    14    15   ar
    15    15    16   ar
    16    16    17   ar
    17    17    18   ar
    18    18    19   ar
    19     8    20   ar
    20     2    21    1
    21    21    22   ar
    22    22    23   ar
    23    23    24   ar
    24    24    25   ar
    25    25    26   ar
    26    26    27   ar
    27    27    28   ar
    28    28    29   ar
    29    20     1    1
    30    29    21   ar
    31    20     4   ar
    32    29    25   ar
    33    19     7   ar
    34    19    11   ar
    35    18    14   ar
    36     1    30    1
    37     1    31    1
    38     3    32    1
    39     5    33    1
    40    10    34    1
    41    12    35    1
    42    13    36    1
    43    15    37    1
    44    16    38    1
    45    17    39    1
    46    22    40    1
    47    23    41    1
    48    24    42    1
    49    26    43    1
    50    28    44    1
