@<TRIPOS>MOLECULE
*****
 43 49 0 0 0
SMALL
GASTEIGER

@<TRIPOS>ATOM
      1 C          -1.1446   -1.0881    0.2937 C.3     1  UNL1        0.0009
      2 C          -2.3032   -0.2168   -0.1554 C.2     1  UNL1       -0.0346
      3 C          -1.8983    0.9776   -0.6257 C.2     1  UNL1       -0.0487
      4 C          -0.4535    1.0221   -0.5113 C.ar    1  UNL1       -0.0011
      5 C           0.4513    1.9967   -0.8329 C.ar    1  UNL1        0.0358
      6 N           1.7786    1.8247   -0.6407 N.ar    1  UNL1       -0.2522
      7 C           2.2263    0.6432   -0.1121 C.ar    1  UNL1        0.0978
      8 C           1.3551   -0.4108    0.2433 C.ar    1  UNL1        0.0938
      9 N           1.7499   -1.5915    0.7645 N.ar    1  UNL1       -0.2525
     10 C           3.0736   -1.7839    0.9650 C.ar    1  UNL1        0.0361
     11 C           4.0649   -0.8581    0.6744 C.ar    1  UNL1        0.0030
     12 C           5.4620   -1.1605    0.9268 C.ar    1  UNL1       -0.0518
     13 C           6.5428   -0.2876    0.6658 C.ar    1  UNL1       -0.0504
     14 C           6.0723    0.9000    0.1331 C.ar    1  UNL1        0.0205
     15 C           6.8275    1.9782   -0.2423 C.ar    1  UNL1        0.0994
     16 O           6.0079    2.9612   -0.7225 O.2     1  UNL1       -0.4698
     17 C           4.7221    2.4977   -0.6488 C.ar    1  UNL1        0.1000
     18 C           4.7091    1.2284   -0.1268 C.ar    1  UNL1        0.0297
     19 C           3.5983    0.3803    0.1214 C.ar    1  UNL1        0.0217
     20 C           0.0156   -0.1764    0.0257 C.ar    1  UNL1       -0.0070
     21 C          -3.6738   -0.7002   -0.1074 C.ar    1  UNL1       -0.0133
     22 C          -4.0791   -1.9509   -0.6363 C.ar    1  UNL1       -0.0537
     23 C          -5.4248   -2.4412   -0.6031 C.ar    1  UNL1       -0.0606
     24 C          -6.5048   -1.7389   -0.0299 C.ar    1  UNL1       -0.0535
     25 C          -6.1026   -0.5167    0.5080 C.ar    1  UNL1       -0.0103
     26 C          -6.9830    0.3284    1.1371 C.ar    1  UNL1       -0.0166
     27 S          -6.1863    1.7325    1.7222 S.2     1  UNL1       -0.1039
     28 C          -4.6594    1.2016    1.1340 C.ar    1  UNL1       -0.0160
     29 C          -4.7494   -0.0062    0.4797 C.ar    1  UNL1       -0.0035
     30 H          -1.2203   -1.3259    1.3595 H       1  UNL1        0.0362
     31 H          -1.0662   -2.0004   -0.3055 H       1  UNL1        0.0362
     32 H          -2.5061    1.7694   -1.0343 H       1  UNL1        0.0627
     33 H           0.1528    2.9499   -1.2550 H       1  UNL1        0.0836
     34 H           3.3185   -2.7559    1.3880 H       1  UNL1        0.0836
     35 H           5.7089   -2.1364    1.3518 H       1  UNL1        0.0624
     36 H           7.5762   -0.5347    0.8622 H       1  UNL1        0.0625
     37 H           7.8827    2.2113   -0.2420 H       1  UNL1        0.1035
     38 H           3.9641    3.1837   -1.0008 H       1  UNL1        0.1036
     39 H          -3.3329   -2.5839   -1.1184 H       1  UNL1        0.0624
     40 H          -5.6228   -3.4160   -1.0507 H       1  UNL1        0.0618
     41 H          -7.5140   -2.1284   -0.0134 H       1  UNL1        0.0624
     42 H          -8.0452    0.2054    1.2978 H       1  UNL1        0.0699
     43 H          -3.7902    1.8176    1.3139 H       1  UNL1        0.0700
@<TRIPOS>BOND
     1     1     2    1
     2     2     3    2
     3     3     4    1
     4     4     5   ar
     5     5     6   ar
     6     6     7   ar
     7     7     8   ar
     8     8     9   ar
     9     9    10   ar
    10    10    11   ar
    11    11    12   ar
    12    12    13   ar
    13    13    14   ar
    14    14    15   ar
    15    15    16   ar
    16    16    17   ar
    17    17    18   ar
    18    18    19   ar
    19     8    20   ar
    20     2    21    1
    21    21    22   ar
    22    22    23   ar
    23    23    24   ar
    24    24    25   ar
    25    25    26   ar
    26    26    27   ar
    27    27    28   ar
    28    28    29   ar
    29    20     1    1
    30    29    21   ar
    31    20     4   ar
    32    29    25   ar
    33    19     7   ar
    34    19    11   ar
    35    18    14   ar
    36     1    30    1
    37     1    31    1
    38     3    32    1
    39     5    33    1
    40    10    34    1
    41    12    35    1
    42    13    36    1
    43    15    37    1
    44    17    38    1
    45    22    39    1
    46    23    40    1
    47    24    41    1
    48    26    42    1
    49    28    43    1
