@<TRIPOS>MOLECULE
*****
 40 45 0 0 0
SMALL
GASTEIGER

@<TRIPOS>ATOM
      1 C           1.5831   -0.2203   -0.0380 C.3     1  UNL1        0.0000
      2 C           2.5793    0.5119   -0.9284 C.2     1  UNL1        0.0000
      3 C           1.9558    1.3299   -1.7974 C.2     1  UNL1        0.0000
      4 C           0.5285    1.2232   -1.5657 C.ar    1  UNL1        0.0000
      5 C          -0.5308    1.8456   -2.1789 C.ar    1  UNL1        0.0000
      6 N          -1.8223    1.6233   -1.8249 N.ar    1  UNL1        0.0000
      7 C          -2.0992    0.7540   -0.8247 C.ar    1  UNL1        0.0000
      8 C          -3.4515    0.5285   -0.4623 C.ar    1  UNL1        0.0000
      9 SI         -4.9794    1.3257   -1.2357 Si      1  UNL1        0.0000
     10 C          -6.0660    0.3341   -0.0330 C.2     1  UNL1        0.0000
     11 C          -5.3572   -0.4538    0.7960 C.2     1  UNL1        0.0000
     12 C          -3.9226   -0.3515    0.5652 C.ar    1  UNL1        0.0000
     13 C          -2.8886   -1.0026    1.2149 C.ar    1  UNL1        0.0000
     14 C          -2.9708   -1.9075    2.2413 C.ar    1  UNL1        0.0000
     15 N          -1.6806   -2.2752    2.5539 N.ar    1  UNL1        0.0000
     16 C          -0.7828   -1.6151    1.7375 C.ar    1  UNL1        0.0000
     17 C          -1.5087   -0.8128    0.8901 C.ar    1  UNL1        0.0000
     18 C          -1.0390    0.0645   -0.1349 C.ar    1  UNL1        0.0000
     19 C           0.2803    0.3241   -0.5347 C.ar    1  UNL1        0.0000
     20 C           4.0051    0.3453   -0.8241 C.2     1  UNL1        0.0000
     21 C           4.9599    1.2805   -1.0231 C.2     1  UNL1        0.0000
     22 C           6.3331    0.8423   -0.8225 C.2     1  UNL1        0.0000
     23 C           6.4804   -0.4428   -0.4547 C.2     1  UNL1        0.0000
     24 SI          4.8203   -1.3027   -0.3162 Si      1  UNL1        0.0000
     25 H           1.7417    0.0368    1.0140 H       1  UNL1        0.0000
     26 H           1.6282   -1.3022   -0.1944 H       1  UNL1        0.0000
     27 H           2.4038    1.9670   -2.5431 H       1  UNL1        0.0000
     28 H          -0.3868    2.5550   -2.9870 H       1  UNL1        0.0000
     29 H          -5.1198    2.7789   -0.9585 H       1  UNL1        0.0000
     30 H          -5.2546    0.8969   -2.6317 H       1  UNL1        0.0000
     31 H          -7.1394    0.4382   -0.0633 H       1  UNL1        0.0000
     32 H          -5.7809   -1.0969    1.5536 H       1  UNL1        0.0000
     33 H          -3.8097   -2.3256    2.7805 H       1  UNL1        0.0000
     34 H          -1.4269   -2.9339    3.2789 H       1  UNL1        0.0000
     35 H           0.2754   -1.7935    1.8570 H       1  UNL1        0.0000
     36 H           4.7560    2.3076   -1.3019 H       1  UNL1        0.0000
     37 H           7.1601    1.5276   -0.9639 H       1  UNL1        0.0000
     38 H           7.4067   -0.9583   -0.2569 H       1  UNL1        0.0000
     39 H           4.4798   -1.6810    1.0791 H       1  UNL1        0.0000
     40 H           4.6404   -2.3651   -1.3364 H       1  UNL1        0.0000
@<TRIPOS>BOND
     1     1     2    1
     2     2     3    2
     3     3     4    1
     4     4     5   ar
     5     5     6   ar
     6     6     7   ar
     7     7     8   ar
     8     8     9    1
     9     9    10    1
    10    10    11    2
    11    11    12    1
    12    12    13   ar
    13    13    14   ar
    14    14    15   ar
    15    15    16   ar
    16    16    17   ar
    17    17    18   ar
    18    18    19   ar
    19     2    20    1
    20    20    21    2
    21    21    22    1
    22    22    23    2
    23    23    24    1
    24    19     1    1
    25    24    20    1
    26    19     4   ar
    27    18     7   ar
    28    12     8   ar
    29    17    13   ar
    30     1    25    1
    31     1    26    1
    32     3    27    1
    33     5    28    1
    34     9    29    1
    35     9    30    1
    36    10    31    1
    37    11    32    1
    38    14    33    1
    39    15    34    1
    40    16    35    1
    41    21    36    1
    42    22    37    1
    43    23    38    1
    44    24    39    1
    45    24    40    1
