@<TRIPOS>MOLECULE
*****
 42 48 0 0 0
SMALL
GASTEIGER

@<TRIPOS>ATOM
      1 C           1.1191   -0.8195    0.0347 C.3     1  UNL1        0.0000
      2 C           2.4224   -0.1041    0.3708 C.2     1  UNL1        0.0000
      3 C           2.1850    1.1544    0.7865 C.2     1  UNL1        0.0000
      4 C           0.7540    1.3851    0.7395 C.ar    1  UNL1        0.0000
      5 C           0.0363    2.5104    1.0547 C.ar    1  UNL1        0.0000
      6 N          -1.3078    2.5506    0.9523 N.ar    1  UNL1        0.0000
      7 C          -1.9636    1.4255    0.5190 C.ar    1  UNL1        0.0000
      8 C          -3.4370    1.5617    0.4366 C.ar    1  UNL1        0.0000
      9 C          -4.0865    2.7512    0.7770 C.ar    1  UNL1        0.0000
     10 N          -5.4273    2.9541    0.7281 N.ar    1  UNL1        0.0000
     11 C          -6.1755    1.9161    0.3165 C.ar    1  UNL1        0.0000
     12 C          -5.6498    0.6888   -0.0474 C.ar    1  UNL1        0.0000
     13 C          -4.2625    0.5010    0.0108 C.ar    1  UNL1        0.0000
     14 C          -3.6104   -0.7752   -0.3580 C.ar    1  UNL1        0.0000
     15 C          -4.2617   -1.8796   -0.7817 C.2     1  UNL1        0.0000
     16 SI         -3.0902   -3.2811   -1.1459 Si      1  UNL1        0.0000
     17 C          -1.6924   -2.1429   -0.6459 C.2     1  UNL1        0.0000
     18 C          -2.1328   -0.9202   -0.2782 C.ar    1  UNL1        0.0000
     19 C          -1.3014    0.2212    0.1736 C.ar    1  UNL1        0.0000
     20 C           0.0872    0.2370    0.2977 C.ar    1  UNL1        0.0000
     21 C           3.7363   -0.6378    0.3215 C.ar    1  UNL1        0.0000
     22 S           4.1062   -2.2281    0.8968 S.2     1  UNL1        0.0000
     23 C           5.7753   -2.0971    0.5028 C.ar    1  UNL1        0.0000
     24 C           5.9733   -0.8886   -0.0667 C.ar    1  UNL1        0.0000
     25 C           7.1192   -0.2548   -0.6027 C.ar    1  UNL1        0.0000
     26 C           6.8353    1.0153   -1.1156 C.ar    1  UNL1        0.0000
     27 S           5.1645    1.5478   -0.9988 S.2     1  UNL1        0.0000
     28 C           4.8649   -0.0492   -0.1951 C.ar    1  UNL1        0.0000
     29 H           0.9738   -1.6800    0.6951 H       1  UNL1        0.0000
     30 H           1.1203   -1.1192   -1.0179 H       1  UNL1        0.0000
     31 H           2.8980    1.8929    1.1189 H       1  UNL1        0.0000
     32 H           0.5115    3.4218    1.4004 H       1  UNL1        0.0000
     33 H          -3.5237    3.6190    1.1155 H       1  UNL1        0.0000
     34 H          -7.2456    2.0991    0.2844 H       1  UNL1        0.0000
     35 H          -6.3261   -0.0940   -0.3676 H       1  UNL1        0.0000
     36 H          -5.3204   -2.0218   -0.9204 H       1  UNL1        0.0000
     37 H          -3.0459   -3.6279   -2.5861 H       1  UNL1        0.0000
     38 H          -3.2526   -4.4182   -0.2094 H       1  UNL1        0.0000
     39 H          -0.6902   -2.5269   -0.6858 H       1  UNL1        0.0000
     40 H           6.4709   -2.9004    0.7000 H       1  UNL1        0.0000
     41 H           8.1137   -0.6833   -0.6307 H       1  UNL1        0.0000
     42 H           7.5359    1.6967   -1.5790 H       1  UNL1        0.0000
@<TRIPOS>BOND
     1     1     2    1
     2     2     3    2
     3     3     4    1
     4     4     5   ar
     5     5     6   ar
     6     6     7   ar
     7     7     8   ar
     8     8     9   ar
     9     9    10   ar
    10    10    11   ar
    11    11    12   ar
    12    12    13   ar
    13    13    14   ar
    14    14    15    2
    15    15    16    1
    16    16    17    1
    17    17    18    2
    18    18    19   ar
    19    19    20   ar
    20     2    21    1
    21    21    22   ar
    22    22    23   ar
    23    23    24   ar
    24    24    25   ar
    25    25    26   ar
    26    26    27   ar
    27    27    28   ar
    28    20     1    1
    29    28    21   ar
    30    20     4   ar
    31    28    24   ar
    32    19     7   ar
    33    13     8   ar
    34    18    14   ar
    35     1    29    1
    36     1    30    1
    37     3    31    1
    38     5    32    1
    39     9    33    1
    40    11    34    1
    41    12    35    1
    42    15    36    1
    43    16    37    1
    44    16    38    1
    45    17    39    1
    46    23    40    1
    47    25    41    1
    48    26    42    1
