@<TRIPOS>MOLECULE
*****
 41 47 0 0 0
SMALL
GASTEIGER

@<TRIPOS>ATOM
      1 SI         -2.7199    1.2191    3.8091 Si      1  UNL1        0.0000
      2 C          -3.5265    0.8037    2.1707 C.2     1  UNL1        0.0000
      3 C          -2.6050    0.4967    1.2320 C.ar    1  UNL1        0.0000
      4 C          -2.9013    0.1256   -0.1809 C.ar    1  UNL1        0.0000
      5 C          -1.8691   -0.1495   -1.0254 C.ar    1  UNL1        0.0000
      6 C          -0.5494   -0.0595   -0.5043 C.ar    1  UNL1        0.0000
      7 N           0.5733   -0.3063   -1.2572 N.ar    1  UNL1        0.0000
      8 C           1.6577   -0.1286   -0.4327 C.ar    1  UNL1        0.0000
      9 C           1.2029    0.2236    0.8083 C.ar    1  UNL1        0.0000
     10 O           2.2329    0.4216    1.6990 O.2     1  UNL1        0.0000
     11 C           3.3768    0.1796    0.9700 C.ar    1  UNL1        0.0000
     12 C           4.7149    0.2457    1.4153 C.ar    1  UNL1        0.0000
     13 C           5.7711   -0.0410    0.5064 C.ar    1  UNL1        0.0000
     14 C           5.3329   -0.3695   -0.7813 C.ar    1  UNL1        0.0000
     15 C           6.1322   -0.6889   -1.8526 C.ar    1  UNL1        0.0000
     16 N           5.3017   -0.9463   -2.9359 N.ar    1  UNL1        0.0000
     17 C           3.9726   -0.7974   -2.5778 C.ar    1  UNL1        0.0000
     18 C           4.0145   -0.4467   -1.2650 C.ar    1  UNL1        0.0000
     19 C           3.0293   -0.1517   -0.3140 C.ar    1  UNL1        0.0000
     20 C          -0.1914    0.2754    0.7913 C.ar    1  UNL1        0.0000
     21 C          -1.1975    0.5735    1.7366 C.ar    1  UNL1        0.0000
     22 C          -1.0563    0.9234    3.0269 C.2     1  UNL1        0.0000
     23 C          -4.2248   -0.0025   -0.7166 C.ar    1  UNL1        0.0000
     24 C          -5.1681   -0.9842   -0.4625 C.ar    1  UNL1        0.0000
     25 C          -6.3889   -0.7768   -1.1673 C.ar    1  UNL1        0.0000
     26 C          -6.3495    0.3630   -1.9366 C.ar    1  UNL1        0.0000
     27 S          -4.8518    1.1758   -1.8060 S.2     1  UNL1        0.0000
     28 H          -2.9306    2.6353    4.1948 H       1  UNL1        0.0000
     29 H          -3.0452    0.2218    4.8575 H       1  UNL1        0.0000
     30 H          -4.5982    0.8324    2.0552 H       1  UNL1        0.0000
     31 H          -2.0328   -0.4377   -2.0592 H       1  UNL1        0.0000
     32 H           0.6400   -0.5693   -2.2320 H       1  UNL1        0.0000
     33 H           4.9301    0.5140    2.4445 H       1  UNL1        0.0000
     34 H           6.8112   -0.0025    0.8036 H       1  UNL1        0.0000
     35 H           7.2057   -0.7610   -1.9624 H       1  UNL1        0.0000
     36 H           5.6263   -1.2062   -3.8582 H       1  UNL1        0.0000
     37 H           3.1759   -0.9562   -3.2894 H       1  UNL1        0.0000
     38 H          -0.1311    1.0358    3.5700 H       1  UNL1        0.0000
     39 H          -4.9831   -1.8181    0.2045 H       1  UNL1        0.0000
     40 H          -7.2513   -1.4293   -1.1096 H       1  UNL1        0.0000
     41 H          -7.1301    0.7632   -2.5688 H       1  UNL1        0.0000
@<TRIPOS>BOND
     1     1     2    1
     2     2     3    2
     3     3     4   ar
     4     4     5   ar
     5     5     6   ar
     6     6     7   ar
     7     7     8   ar
     8     8     9   ar
     9     9    10   ar
    10    10    11   ar
    11    11    12   ar
    12    12    13   ar
    13    13    14   ar
    14    14    15   ar
    15    15    16   ar
    16    16    17   ar
    17    17    18   ar
    18    18    19   ar
    19     9    20   ar
    20    20    21   ar
    21    21    22    2
    22     4    23    1
    23    23    24   ar
    24    24    25   ar
    25    25    26   ar
    26    26    27   ar
    27    22     1    1
    28    27    23   ar
    29    21     3   ar
    30    20     6   ar
    31    19     8   ar
    32    19    11   ar
    33    18    14   ar
    34     1    28    1
    35     1    29    1
    36     2    30    1
    37     5    31    1
    38     7    32    1
    39    12    33    1
    40    13    34    1
    41    15    35    1
    42    16    36    1
    43    17    37    1
    44    22    38    1
    45    24    39    1
    46    25    40    1
    47    26    41    1
