@<TRIPOS>MOLECULE
*****
 30 34 0 0 0
SMALL
GASTEIGER

@<TRIPOS>ATOM
      1 C           0.0704    0.4324   -0.0978 C.3     1  UNL1        0.0013
      2 C          -0.7663   -0.7562    0.3766 C.2     1  UNL1       -0.0281
      3 C          -0.0325   -1.8914    0.3401 C.2     1  UNL1       -0.0482
      4 C           1.3036   -1.5815   -0.1406 C.ar    1  UNL1       -0.0011
      5 C           2.3998   -2.3921   -0.3494 C.ar    1  UNL1        0.0358
      6 N           3.5957   -1.9534   -0.8079 N.ar    1  UNL1       -0.2529
      7 C           3.6651   -0.6191   -1.0626 C.ar    1  UNL1        0.0887
      8 C           4.7572    0.1407   -1.5439 C.ar    1  UNL1       -0.0183
      9 C           4.3417    1.4523   -1.6398 C.ar    1  UNL1        0.0042
     10 N           3.0319    1.5126   -1.2320 N.ar    1  UNL1       -0.3592
     11 C           2.5970    0.2615   -0.8750 C.ar    1  UNL1        0.0691
     12 C           1.3846   -0.2179   -0.4042 C.ar    1  UNL1       -0.0091
     13 C          -2.1332   -0.7277    0.8082 C.ar    1  UNL1        0.0239
     14 S          -2.9970   -2.1510    1.3322 S.2     1  UNL1       -0.0952
     15 C          -4.4555   -1.3077    1.6510 C.ar    1  UNL1       -0.0094
     16 C          -4.3050    0.0165    1.3721 C.ar    1  UNL1        0.0269
     17 S          -5.4761    1.3781    1.5087 S.2     1  UNL1       -0.0961
     18 C          -4.1561    2.3692    0.9143 C.ar    1  UNL1       -0.0231
     19 C          -2.9538    1.7041    0.6462 C.ar    1  UNL1       -0.0459
     20 C          -3.0192    0.3051    0.9111 C.ar    1  UNL1        0.0037
     21 H           0.1856    1.1781    0.6946 H       1  UNL1        0.0363
     22 H          -0.3555    0.8827   -0.9996 H       1  UNL1        0.0363
     23 H          -0.3278   -2.8936    0.6092 H       1  UNL1        0.0627
     24 H           2.3537   -3.4582   -0.1489 H       1  UNL1        0.0836
     25 H           5.7385   -0.2395   -1.7910 H       1  UNL1        0.0654
     26 H           4.8636    2.3434   -1.9618 H       1  UNL1        0.0807
     27 H           2.4713    2.3531   -1.1995 H       1  UNL1        0.1654
     28 H          -5.3445   -1.7998    2.0207 H       1  UNL1        0.0705
     29 H          -4.3513    3.4261    0.7923 H       1  UNL1        0.0694
     30 H          -2.0860    2.2333    0.2768 H       1  UNL1        0.0629
@<TRIPOS>BOND
     1     1     2    1
     2     2     3    2
     3     3     4    1
     4     4     5   ar
     5     5     6   ar
     6     6     7   ar
     7     7     8   ar
     8     8     9   ar
     9     9    10   ar
    10    10    11   ar
    11    11    12   ar
    12     2    13    1
    13    13    14   ar
    14    14    15   ar
    15    15    16   ar
    16    16    17   ar
    17    17    18   ar
    18    18    19   ar
    19    19    20   ar
    20    12     1    1
    21    20    13   ar
    22    12     4   ar
    23    20    16   ar
    24    11     7   ar
    25     1    21    1
    26     1    22    1
    27     3    23    1
    28     5    24    1
    29     8    25    1
    30     9    26    1
    31    10    27    1
    32    15    28    1
    33    18    29    1
    34    19    30    1
