@<TRIPOS>MOLECULE
*****
 40 46 0 0 0
SMALL
GASTEIGER

@<TRIPOS>ATOM
      1 C           1.1094   -0.3560   -0.1557 C.3     1  UNL1       -0.0000
      2 C           2.1717   -1.4325   -0.3943 C.2     1  UNL1       -0.0266
      3 C           1.5916   -2.5939   -0.7664 C.2     1  UNL1       -0.0482
      4 C           0.1540   -2.4027   -0.8069 C.ar    1  UNL1       -0.0025
      5 C          -0.8649   -3.2662   -1.1225 C.ar    1  UNL1        0.0357
      6 N          -2.1670   -2.8907   -1.1012 N.ar    1  UNL1       -0.2544
      7 C          -2.4686   -1.6190   -0.7561 C.ar    1  UNL1        0.0719
      8 C          -3.8043   -1.2304   -0.7332 C.ar    1  UNL1       -0.0279
      9 C          -4.2194    0.0669   -0.3882 C.ar    1  UNL1       -0.0137
     10 C          -5.6009    0.4077   -0.3821 C.ar    1  UNL1       -0.0518
     11 C          -6.0989    1.6822   -0.0492 C.ar    1  UNL1       -0.0329
     12 C          -5.1366    2.6575    0.2948 C.ar    1  UNL1        0.1005
     13 N          -5.4000    3.9265    0.6418 N.ar    1  UNL1       -0.1908
     14 S          -3.9343    4.6439    0.9451 S.2     1  UNL1        0.1165
     15 N          -2.9004    3.3794    0.6507 N.ar    1  UNL1       -0.1902
     16 C          -3.6657    2.3298    0.2984 C.ar    1  UNL1        0.1076
     17 C          -3.2141    1.0113   -0.0502 C.ar    1  UNL1        0.0110
     18 C          -1.8547    0.6461   -0.0647 C.ar    1  UNL1       -0.0424
     19 C          -1.4840   -0.6626   -0.4160 C.ar    1  UNL1        0.0051
     20 C          -0.1594   -1.0957   -0.4524 C.ar    1  UNL1       -0.0253
     21 C           3.5923   -1.2669   -0.2524 C.ar    1  UNL1        0.0431
     22 S           4.7219   -2.5576   -0.5481 S.2     1  UNL1       -0.0926
     23 C           6.0896   -1.5997   -0.1822 C.ar    1  UNL1        0.0038
     24 C           5.7260   -0.3263    0.1593 C.ar    1  UNL1        0.0968
     25 N           6.6318    0.6336    0.4951 N.ar    1  UNL1       -0.2514
     26 C           6.0045    1.8042    0.7897 C.ar    1  UNL1        0.0464
     27 C           4.6201    2.0060    0.7558 C.ar    1  UNL1        0.0464
     28 N           3.6967    1.0627    0.4235 N.ar    1  UNL1       -0.2508
     29 C           4.2957   -0.1296    0.1209 C.ar    1  UNL1        0.1036
     30 H           1.2399    0.4822   -0.8475 H       1  UNL1        0.0362
     31 H           1.1249   -0.0151    0.8844 H       1  UNL1        0.0362
     32 H           2.0581   -3.5363   -1.0061 H       1  UNL1        0.0627
     33 H          -0.6796   -4.2965   -1.4061 H       1  UNL1        0.0836
     34 H          -4.5460   -1.9830   -0.9986 H       1  UNL1        0.0645
     35 H          -6.3325   -0.3574   -0.6504 H       1  UNL1        0.0624
     36 H          -7.1586    1.9072   -0.0549 H       1  UNL1        0.0640
     37 H          -1.0990    1.3840    0.1973 H       1  UNL1        0.0631
     38 H           7.0871   -2.0109   -0.2341 H       1  UNL1        0.0715
     39 H           6.6673    2.6190    1.0677 H       1  UNL1        0.0845
     40 H           4.2065    2.9788    1.0077 H       1  UNL1        0.0845
@<TRIPOS>BOND
     1     1     2    1
     2     2     3    2
     3     3     4    1
     4     4     5   ar
     5     5     6   ar
     6     6     7   ar
     7     7     8   ar
     8     8     9   ar
     9     9    10   ar
    10    10    11   ar
    11    11    12   ar
    12    12    13   ar
    13    13    14   ar
    14    14    15   ar
    15    15    16   ar
    16    16    17   ar
    17    17    18   ar
    18    18    19   ar
    19    19    20   ar
    20     2    21    1
    21    21    22   ar
    22    22    23   ar
    23    23    24   ar
    24    24    25   ar
    25    25    26   ar
    26    26    27   ar
    27    27    28   ar
    28    28    29   ar
    29    20     1    1
    30    29    21   ar
    31    20     4   ar
    32    29    24   ar
    33    19     7   ar
    34    17     9   ar
    35    16    12   ar
    36     1    30    1
    37     1    31    1
    38     3    32    1
    39     5    33    1
    40     8    34    1
    41    10    35    1
    42    11    36    1
    43    18    37    1
    44    23    38    1
    45    26    39    1
    46    27    40    1
