@<TRIPOS>MOLECULE
*****
 36 40 0 0 0
SMALL
GASTEIGER

@<TRIPOS>ATOM
      1 C           0.3245    0.3115   -0.0622 C.3     1  UNL1       -0.0006
      2 C          -0.6745   -0.8302   -0.0944 C.2     1  UNL1       -0.0346
      3 C          -0.0399   -2.0203   -0.1557 C.2     1  UNL1       -0.0488
      4 C           1.3903   -1.7814   -0.1682 C.ar    1  UNL1       -0.0025
      5 C           2.4543   -2.6468   -0.2219 C.ar    1  UNL1        0.0357
      6 N           3.7395   -2.2181   -0.2236 N.ar    1  UNL1       -0.2544
      7 C           3.9750   -0.8868   -0.1702 C.ar    1  UNL1        0.0713
      8 C           5.2865   -0.4325   -0.1713 C.ar    1  UNL1       -0.0357
      9 C           5.5975    0.9302   -0.1177 C.ar    1  UNL1       -0.0597
     10 C           4.5777    1.8733   -0.0614 C.ar    1  UNL1       -0.0611
     11 C           3.2502    1.4517   -0.0587 C.ar    1  UNL1       -0.0523
     12 C           2.9412    0.0778   -0.1127 C.ar    1  UNL1        0.0044
     13 C           1.6364   -0.4146   -0.1134 C.ar    1  UNL1       -0.0253
     14 C          -2.1307   -0.6579   -0.0623 C.ar    1  UNL1       -0.0124
     15 C          -3.0606   -1.7422   -0.0855 C.ar    1  UNL1       -0.0537
     16 C          -4.4943   -1.6161   -0.0553 C.ar    1  UNL1       -0.0606
     17 C          -5.1742   -0.3867    0.0021 C.ar    1  UNL1       -0.0526
     18 C          -4.2703    0.6640    0.0248 C.ar    1  UNL1       -0.0000
     19 C          -4.6245    1.9866    0.0799 C.ar    1  UNL1        0.0094
     20 N          -3.4552    2.7071    0.0856 N.ar    1  UNL1       -0.3659
     21 C          -2.3679    1.8556    0.0348 C.ar    1  UNL1        0.0100
     22 C          -2.8357    0.5613   -0.0046 C.ar    1  UNL1        0.0068
     23 H           0.2511    0.8803    0.8698 H       1  UNL1        0.0362
     24 H           0.2232    0.9555   -0.9412 H       1  UNL1        0.0362
     25 H          -0.4647   -3.0098   -0.1911 H       1  UNL1        0.0627
     26 H           2.3199   -3.7219   -0.2659 H       1  UNL1        0.0836
     27 H           6.0917   -1.1623   -0.2152 H       1  UNL1        0.0639
     28 H           6.6372    1.2474   -0.1204 H       1  UNL1        0.0618
     29 H           4.8154    2.9330   -0.0197 H       1  UNL1        0.0618
     30 H           2.4603    2.1968   -0.0144 H       1  UNL1        0.0624
     31 H          -2.6816   -2.7631   -0.1295 H       1  UNL1        0.0624
     32 H          -5.0851   -2.5322   -0.0783 H       1  UNL1        0.0618
     33 H          -6.2504   -0.2979    0.0246 H       1  UNL1        0.0624
     34 H          -5.5844    2.4835    0.1154 H       1  UNL1        0.0813
     35 H          -3.3969    3.7165    0.1217 H       1  UNL1        0.1648
     36 H          -1.3808    2.2887    0.0331 H       1  UNL1        0.0813
@<TRIPOS>BOND
     1     1     2    1
     2     2     3    2
     3     3     4    1
     4     4     5   ar
     5     5     6   ar
     6     6     7   ar
     7     7     8   ar
     8     8     9   ar
     9     9    10   ar
    10    10    11   ar
    11    11    12   ar
    12    12    13   ar
    13     2    14    1
    14    14    15   ar
    15    15    16   ar
    16    16    17   ar
    17    17    18   ar
    18    18    19   ar
    19    19    20   ar
    20    20    21   ar
    21    21    22   ar
    22    13     1    1
    23    22    14   ar
    24    13     4   ar
    25    22    18   ar
    26    12     7   ar
    27     1    23    1
    28     1    24    1
    29     3    25    1
    30     5    26    1
    31     8    27    1
    32     9    28    1
    33    10    29    1
    34    11    30    1
    35    15    31    1
    36    16    32    1
    37    17    33    1
    38    19    34    1
    39    20    35    1
    40    21    36    1
