@<TRIPOS>MOLECULE
*****
 34 38 0 0 0
SMALL
GASTEIGER

@<TRIPOS>ATOM
      1 C           1.0947    0.4646    0.5584 C.3     1  UNL1        0.0022
      2 C           2.1832   -0.4163   -0.0415 C.2     1  UNL1       -0.0323
      3 C           1.6526   -1.4353   -0.7493 C.2     1  UNL1       -0.0319
      4 C           0.2044   -1.3302   -0.6879 C.ar    1  UNL1        0.0696
      5 N          -0.6300   -2.1882   -1.2868 N.ar    1  UNL1       -0.2545
      6 C          -1.9620   -1.9547   -1.1358 C.ar    1  UNL1        0.0395
      7 C          -2.4287   -0.8602   -0.3834 C.ar    1  UNL1        0.0440
      8 C          -1.5022    0.0015    0.2187 C.ar    1  UNL1        0.0560
      9 N          -2.2088    0.9729    0.8841 N.ar    1  UNL1       -0.3526
     10 C          -3.5603    0.7719    0.7350 C.ar    1  UNL1        0.0661
     11 C          -4.6584    1.4834    1.2180 C.ar    1  UNL1       -0.0348
     12 C          -5.9087    0.9839    0.8636 C.ar    1  UNL1       -0.0416
     13 C          -5.9882   -0.1562    0.0756 C.ar    1  UNL1        0.0284
     14 N          -4.9379   -0.8571   -0.4005 N.ar    1  UNL1       -0.2528
     15 C          -3.7209   -0.3667   -0.0525 C.ar    1  UNL1        0.0976
     16 C          -0.1443   -0.2239    0.0734 C.ar    1  UNL1        0.0063
     17 C           3.6148   -0.1387    0.1614 C.ar    1  UNL1       -0.0034
     18 C           4.0518    0.9551    0.9188 C.ar    1  UNL1       -0.0514
     19 C           5.4150    1.1970    1.0965 C.ar    1  UNL1       -0.0430
     20 C           6.3193    0.3327    0.5081 C.ar    1  UNL1        0.0276
     21 N           5.9538   -0.7329   -0.2293 N.ar    1  UNL1       -0.2627
     22 C           4.6205   -0.9402   -0.3830 C.ar    1  UNL1        0.0350
     23 H           1.1300    0.4617    1.6523 H       1  UNL1        0.0363
     24 H           1.1414    1.4862    0.1685 H       1  UNL1        0.0363
     25 H           2.1397   -2.2272   -1.2925 H       1  UNL1        0.0642
     26 H          -2.6368   -2.6512   -1.6219 H       1  UNL1        0.0837
     27 H          -1.7962    1.7298    1.4100 H       1  UNL1        0.1660
     28 H          -4.5520    2.3705    1.8315 H       1  UNL1        0.0639
     29 H          -6.8151    1.4783    1.1981 H       1  UNL1        0.0633
     30 H          -6.9597   -0.5554   -0.2075 H       1  UNL1        0.0830
     31 H           3.3480    1.6386    1.3842 H       1  UNL1        0.0624
     32 H           5.7608    2.0418    1.6816 H       1  UNL1        0.0633
     33 H           7.3900    0.4781    0.6169 H       1  UNL1        0.0829
     34 H           4.3900   -1.8135   -0.9867 H       1  UNL1        0.0835
@<TRIPOS>BOND
     1     1     2    1
     2     2     3    2
     3     3     4    1
     4     4     5   ar
     5     5     6   ar
     6     6     7   ar
     7     7     8   ar
     8     8     9   ar
     9     9    10   ar
    10    10    11   ar
    11    11    12   ar
    12    12    13   ar
    13    13    14   ar
    14    14    15   ar
    15     8    16   ar
    16     2    17    1
    17    17    18   ar
    18    18    19   ar
    19    19    20   ar
    20    20    21   ar
    21    21    22   ar
    22    16     1    1
    23    22    17   ar
    24    16     4   ar
    25    15     7   ar
    26    15    10   ar
    27     1    23    1
    28     1    24    1
    29     3    25    1
    30     6    26    1
    31     9    27    1
    32    11    28    1
    33    12    29    1
    34    13    30    1
    35    18    31    1
    36    19    32    1
    37    20    33    1
    38    22    34    1
