@<TRIPOS>MOLECULE
*****
 48 55 0 0 0
SMALL
GASTEIGER

@<TRIPOS>ATOM
      1 C          -1.8925   -0.2550    0.0277 C.3     1  UNL1        0.0014
      2 C          -2.7792   -1.4609    0.3314 C.2     1  UNL1       -0.0251
      3 C          -2.0203   -2.4992    0.7256 C.2     1  UNL1       -0.0314
      4 C          -0.6354   -2.0762    0.7093 C.ar    1  UNL1        0.0682
      5 N           0.3536   -2.8683    1.0897 N.ar    1  UNL1       -0.2546
      6 C           1.5696   -2.2878    1.0008 C.ar    1  UNL1        0.0366
      7 C           1.8776   -0.9885    0.5205 C.ar    1  UNL1        0.0094
      8 C           0.7809   -0.1372    0.2148 C.ar    1  UNL1       -0.0026
      9 C          -0.5003   -0.7556    0.2943 C.ar    1  UNL1       -0.0093
     10 C           1.0525    1.2489   -0.1146 C.ar    1  UNL1       -0.0092
     11 C           0.0327    2.1757   -0.4731 C.ar    1  UNL1       -0.0534
     12 C           0.2610    3.5239   -0.7479 C.ar    1  UNL1       -0.0611
     13 C           1.5415    4.0124   -0.6799 C.ar    1  UNL1       -0.0611
     14 C           2.5767    3.1422   -0.3492 C.ar    1  UNL1       -0.0534
     15 C           2.3889    1.7575   -0.0633 C.ar    1  UNL1       -0.0095
     16 C           3.4984    0.8947    0.2303 C.ar    1  UNL1       -0.0089
     17 C           4.8663    1.4056    0.3366 C.ar    1  UNL1       -0.0528
     18 C           6.0520    0.6658    0.5164 C.ar    1  UNL1       -0.0529
     19 C           5.7811   -0.6859    0.5157 C.ar    1  UNL1       -0.0103
     20 C           6.8012   -1.6043    0.5669 C.ar    1  UNL1       -0.0166
     21 S           6.1988   -3.1979    0.4226 S.2     1  UNL1       -0.1039
     22 C           4.5792   -2.6348    0.2867 C.ar    1  UNL1       -0.0160
     23 C           4.4644   -1.2693    0.4507 C.ar    1  UNL1       -0.0025
     24 C           3.2330   -0.5059    0.4075 C.ar    1  UNL1        0.0001
     25 C          -4.2104   -1.5152    0.2272 C.ar    1  UNL1        0.0432
     26 S          -5.1230   -2.9498    0.5968 S.2     1  UNL1       -0.0926
     27 C          -6.6288   -2.2221    0.2426 C.ar    1  UNL1        0.0038
     28 C          -6.4708   -0.9215   -0.1496 C.ar    1  UNL1        0.0968
     29 N          -7.5195   -0.1212   -0.4880 N.ar    1  UNL1       -0.2514
     30 C          -7.0846    1.1189   -0.8379 C.ar    1  UNL1        0.0464
     31 C          -5.7462    1.5278   -0.8522 C.ar    1  UNL1        0.0464
     32 N          -4.6813    0.7474   -0.5186 N.ar    1  UNL1       -0.2508
     33 C          -5.0862   -0.5103   -0.1605 C.ar    1  UNL1        0.1036
     34 H          -2.1487    0.5639    0.7076 H       1  UNL1        0.0363
     35 H          -2.0077    0.0280   -1.0236 H       1  UNL1        0.0363
     36 H          -2.3068   -3.4950    1.0194 H       1  UNL1        0.0642
     37 H           2.3390   -2.9290    1.4178 H       1  UNL1        0.0836
     38 H          -1.0020    1.8780   -0.5602 H       1  UNL1        0.0624
     39 H          -0.5663    4.1761   -1.0136 H       1  UNL1        0.0618
     40 H           1.7481    5.0574   -0.8923 H       1  UNL1        0.0618
     41 H           3.5628    3.5954   -0.3440 H       1  UNL1        0.0624
     42 H           5.0393    2.4791    0.2788 H       1  UNL1        0.0624
     43 H           7.0301    1.1237    0.5745 H       1  UNL1        0.0624
     44 H           7.8664   -1.4335    0.6453 H       1  UNL1        0.0699
     45 H           3.8281   -3.3771    0.0657 H       1  UNL1        0.0700
     46 H          -7.5506   -2.7771    0.3376 H       1  UNL1        0.0715
     47 H          -7.8701    1.8141   -1.1212 H       1  UNL1        0.0845
     48 H          -5.4924    2.5423   -1.1471 H       1  UNL1        0.0845
@<TRIPOS>BOND
     1     1     2    1
     2     2     3    2
     3     3     4    1
     4     4     5   ar
     5     5     6   ar
     6     6     7   ar
     7     7     8   ar
     8     8     9   ar
     9     8    10   ar
    10    10    11   ar
    11    11    12   ar
    12    12    13   ar
    13    13    14   ar
    14    14    15   ar
    15    15    16   ar
    16    16    17   ar
    17    17    18   ar
    18    18    19   ar
    19    19    20   ar
    20    20    21   ar
    21    21    22   ar
    22    22    23   ar
    23    23    24   ar
    24     2    25    1
    25    25    26   ar
    26    26    27   ar
    27    27    28   ar
    28    28    29   ar
    29    29    30   ar
    30    30    31   ar
    31    31    32   ar
    32    32    33   ar
    33     9     1    1
    34    15    10   ar
    35    24    16   ar
    36    33    25   ar
    37     9     4   ar
    38    23    19   ar
    39    33    28   ar
    40    24     7   ar
    41     1    34    1
    42     1    35    1
    43     3    36    1
    44     6    37    1
    45    11    38    1
    46    12    39    1
    47    13    40    1
    48    14    41    1
    49    17    42    1
    50    18    43    1
    51    20    44    1
    52    22    45    1
    53    27    46    1
    54    30    47    1
    55    31    48    1
