@<TRIPOS>MOLECULE
*****
 48 55 0 0 0
SMALL
GASTEIGER

@<TRIPOS>ATOM
      1 C           1.0694   -0.3339    0.8643 C.3     1  UNL1        0.0009
      2 C           2.0696   -0.7560   -0.1942 C.2     1  UNL1       -0.0332
      3 C           1.4902   -1.0084   -1.3810 C.2     1  UNL1       -0.0320
      4 C           0.0738   -0.7519   -1.2190 C.ar    1  UNL1        0.0683
      5 N          -0.8303   -0.9115   -2.1810 N.ar    1  UNL1       -0.2546
      6 C          -2.1094   -0.6184   -1.8148 C.ar    1  UNL1        0.0366
      7 C          -2.5644   -0.1435   -0.5589 C.ar    1  UNL1        0.0110
      8 C          -1.5307   -0.0638    0.4233 C.ar    1  UNL1        0.0178
      9 C          -0.2048   -0.3524    0.0742 C.ar    1  UNL1       -0.0078
     10 C          -1.9117    0.2879    1.7593 C.ar    1  UNL1        0.1085
     11 N          -1.0849    0.4053    2.8152 N.ar    1  UNL1       -0.1901
     12 S          -2.0130    0.7910    4.1258 S.2     1  UNL1        0.1165
     13 N          -3.5085    0.8281    3.4259 N.ar    1  UNL1       -0.1901
     14 C          -3.3474    0.5478    2.1174 C.ar    1  UNL1        0.1082
     15 C          -4.3868    0.4967    1.1338 C.ar    1  UNL1        0.0116
     16 C          -5.7425    0.7497    1.5751 C.ar    1  UNL1       -0.0513
     17 C          -6.8546    0.7757    0.7264 C.ar    1  UNL1       -0.0529
     18 C          -6.4800    0.5859   -0.5953 C.ar    1  UNL1       -0.0103
     19 C          -7.4220    0.6503   -1.5934 C.ar    1  UNL1       -0.0166
     20 S          -6.7023    0.4875   -3.1343 S.2     1  UNL1       -0.1039
     21 C          -5.1290    0.3412   -2.4526 C.ar    1  UNL1       -0.0160
     22 C          -5.1305    0.3300   -1.0743 C.ar    1  UNL1       -0.0025
     23 C          -3.9629    0.2029   -0.2281 C.ar    1  UNL1        0.0017
     24 C           3.4955   -0.9083    0.1097 C.ar    1  UNL1       -0.0138
     25 C           3.8513   -1.9228    1.0127 C.ar    1  UNL1       -0.0537
     26 C           5.1843   -2.1460    1.3414 C.ar    1  UNL1       -0.0606
     27 C           6.1791   -1.3566    0.7717 C.ar    1  UNL1       -0.0540
     28 C           5.8580   -0.3305   -0.1294 C.ar    1  UNL1       -0.0173
     29 C           6.8779    0.4588   -0.6872 C.ar    1  UNL1       -0.0540
     30 C           6.5834    1.4915   -1.5757 C.ar    1  UNL1       -0.0612
     31 C           5.2631    1.7514   -1.9159 C.ar    1  UNL1       -0.0611
     32 C           4.2380    0.9747   -1.3707 C.ar    1  UNL1       -0.0535
     33 C           4.5031   -0.0881   -0.4731 C.ar    1  UNL1       -0.0105
     34 H           1.2938    0.6726    1.2308 H       1  UNL1        0.0362
     35 H           1.0336   -1.0553    1.6862 H       1  UNL1        0.0362
     36 H           1.9445   -1.3435   -2.2978 H       1  UNL1        0.0642
     37 H          -2.8009   -0.8485   -2.6154 H       1  UNL1        0.0836
     38 H          -5.9250    0.9368    2.6360 H       1  UNL1        0.0624
     39 H          -7.8587    0.9696    1.0802 H       1  UNL1        0.0624
     40 H          -8.4888    0.8093   -1.5102 H       1  UNL1        0.0699
     41 H          -4.3170    0.3012   -3.1578 H       1  UNL1        0.0700
     42 H           3.0885   -2.5597    1.4557 H       1  UNL1        0.0624
     43 H           5.4489   -2.9381    2.0367 H       1  UNL1        0.0618
     44 H           7.2160   -1.5487    1.0399 H       1  UNL1        0.0624
     45 H           7.9188    0.2746   -0.4294 H       1  UNL1        0.0624
     46 H           7.3845    2.0925   -1.9973 H       1  UNL1        0.0618
     47 H           5.0245    2.5579   -2.6041 H       1  UNL1        0.0618
     48 H           3.2161    1.2149   -1.6551 H       1  UNL1        0.0624
@<TRIPOS>BOND
     1     1     2    1
     2     2     3    2
     3     3     4    1
     4     4     5   ar
     5     5     6   ar
     6     6     7   ar
     7     7     8   ar
     8     8     9   ar
     9     8    10   ar
    10    10    11   ar
    11    11    12   ar
    12    12    13   ar
    13    13    14   ar
    14    14    15   ar
    15    15    16   ar
    16    16    17   ar
    17    17    18   ar
    18    18    19   ar
    19    19    20   ar
    20    20    21   ar
    21    21    22   ar
    22    22    23   ar
    23     2    24    1
    24    24    25   ar
    25    25    26   ar
    26    26    27   ar
    27    27    28   ar
    28    28    29   ar
    29    29    30   ar
    30    30    31   ar
    31    31    32   ar
    32    32    33   ar
    33     9     1    1
    34    14    10   ar
    35    23    15   ar
    36    33    24   ar
    37     9     4   ar
    38    22    18   ar
    39    33    28   ar
    40    23     7   ar
    41     1    34    1
    42     1    35    1
    43     3    36    1
    44     6    37    1
    45    16    38    1
    46    17    39    1
    47    19    40    1
    48    21    41    1
    49    25    42    1
    50    26    43    1
    51    27    44    1
    52    29    45    1
    53    30    46    1
    54    31    47    1
    55    32    48    1
