@<TRIPOS>MOLECULE
*****
 43 49 0 0 0
SMALL
GASTEIGER

@<TRIPOS>ATOM
      1 C          -1.4188   -0.0312   -0.5683 C.3     1  UNL1        0.0009
      2 C          -2.3352   -0.4357    0.5743 C.2     1  UNL1       -0.0331
      3 C          -1.6231   -0.6541    1.7000 C.2     1  UNL1       -0.0319
      4 C          -0.2244   -0.4196    1.4049 C.ar    1  UNL1        0.0682
      5 N           0.7639   -0.5420    2.2856 N.ar    1  UNL1       -0.2546
      6 C           2.0008   -0.2709    1.7842 C.ar    1  UNL1        0.0366
      7 C           2.3199    0.1164    0.4556 C.ar    1  UNL1        0.0117
      8 C           1.2045    0.2190   -0.4035 C.ar    1  UNL1        0.0078
      9 C           1.4219    0.5925   -1.7226 C.ar    1  UNL1        0.0364
     10 N           2.6283    0.8686   -2.2558 N.ar    1  UNL1       -0.2543
     11 C           3.7133    0.7861   -1.4856 C.ar    1  UNL1        0.0722
     12 C           4.9173    1.0992   -2.1591 C.ar    1  UNL1       -0.0351
     13 C           6.2077    1.0959   -1.6012 C.ar    1  UNL1       -0.0515
     14 C           6.1678    0.7375   -0.2647 C.ar    1  UNL1       -0.0102
     15 C           7.3219    0.6704    0.4759 C.ar    1  UNL1       -0.0166
     16 S           6.9925    0.2066    2.0874 S.2     1  UNL1       -0.1039
     17 C           5.3010    0.0992    1.7784 C.ar    1  UNL1       -0.0160
     18 C           4.9681    0.4064    0.4786 C.ar    1  UNL1       -0.0011
     19 C           3.6386    0.4101   -0.0967 C.ar    1  UNL1        0.0177
     20 C          -0.0717   -0.0531    0.0849 C.ar    1  UNL1       -0.0085
     21 C          -3.7898   -0.5696    0.4683 C.ar    1  UNL1       -0.0108
     22 C          -4.6413   -0.9474    1.5508 C.ar    1  UNL1       -0.0536
     23 C          -6.0744   -1.0878    1.4792 C.ar    1  UNL1       -0.0605
     24 C          -6.8320   -0.8670    0.3139 C.ar    1  UNL1       -0.0510
     25 C          -5.9993   -0.5010   -0.7313 C.ar    1  UNL1        0.0204
     26 C          -6.4012   -0.2120   -2.0066 C.ar    1  UNL1        0.0994
     27 O          -5.3105    0.1064   -2.7607 O.2     1  UNL1       -0.4698
     28 C          -4.2095    0.0173   -1.9527 C.ar    1  UNL1        0.1000
     29 C          -4.5715   -0.3558   -0.6805 C.ar    1  UNL1        0.0272
     30 H          -1.4515   -0.7618   -1.3825 H       1  UNL1        0.0362
     31 H          -1.6465    0.9788   -0.9228 H       1  UNL1        0.0362
     32 H          -1.9546   -0.9504    2.6802 H       1  UNL1        0.0642
     33 H           2.7608   -0.3864    2.5426 H       1  UNL1        0.0836
     34 H           0.6012    0.6877   -2.4295 H       1  UNL1        0.0836
     35 H           4.8358    1.3696   -3.2147 H       1  UNL1        0.0639
     36 H           7.0934    1.3455   -2.1698 H       1  UNL1        0.0624
     37 H           8.3398    0.8662    0.1664 H       1  UNL1        0.0699
     38 H           4.6965   -0.1909    2.6177 H       1  UNL1        0.0700
     39 H          -4.1977   -1.1530    2.5258 H       1  UNL1        0.0624
     40 H          -6.5997   -1.3840    2.3885 H       1  UNL1        0.0618
     41 H          -7.9061   -0.9741    0.2673 H       1  UNL1        0.0625
     42 H          -7.3511   -0.1828   -2.5212 H       1  UNL1        0.1035
     43 H          -3.2849    0.2515   -2.4559 H       1  UNL1        0.1036
@<TRIPOS>BOND
     1     1     2    1
     2     2     3    2
     3     3     4    1
     4     4     5   ar
     5     5     6   ar
     6     6     7   ar
     7     7     8   ar
     8     8     9   ar
     9     9    10   ar
    10    10    11   ar
    11    11    12   ar
    12    12    13   ar
    13    13    14   ar
    14    14    15   ar
    15    15    16   ar
    16    16    17   ar
    17    17    18   ar
    18    18    19   ar
    19     8    20   ar
    20     2    21    1
    21    21    22   ar
    22    22    23   ar
    23    23    24   ar
    24    24    25   ar
    25    25    26   ar
    26    26    27   ar
    27    27    28   ar
    28    28    29   ar
    29    20     1    1
    30    29    21   ar
    31    20     4   ar
    32    29    25   ar
    33    19     7   ar
    34    19    11   ar
    35    18    14   ar
    36     1    30    1
    37     1    31    1
    38     3    32    1
    39     6    33    1
    40     9    34    1
    41    12    35    1
    42    13    36    1
    43    15    37    1
    44    17    38    1
    45    22    39    1
    46    23    40    1
    47    24    41    1
    48    26    42    1
    49    28    43    1
