@<TRIPOS>MOLECULE
*****
 40 45 0 0 0
SMALL
GASTEIGER

@<TRIPOS>ATOM
      1 C           2.8201    0.8808   -0.2835 C.3     1  UNL1        0.0052
      2 C           3.7746   -0.1875    0.2446 C.2     1  UNL1        0.0013
      3 C           3.0995   -1.2366    0.7553 C.2     1  UNL1       -0.0290
      4 C           1.6838   -0.9612    0.6115 C.ar    1  UNL1        0.0698
      5 N           0.7136   -1.7583    1.0437 N.ar    1  UNL1       -0.2545
      6 C          -0.5368   -1.2826    0.8054 C.ar    1  UNL1        0.0380
      7 C          -0.8813   -0.0826    0.1291 C.ar    1  UNL1        0.0271
      8 C           0.2239    0.7312   -0.2200 C.ar    1  UNL1        0.0785
      9 N           0.1005    1.9567   -0.7334 N.ar    1  UNL1       -0.2540
     10 C          -1.1436    2.4480   -0.8666 C.ar    1  UNL1        0.0360
     11 C          -2.3113    1.7465   -0.5920 C.ar    1  UNL1        0.0015
     12 C          -3.5375    2.3997   -0.7447 C.ar    1  UNL1       -0.0520
     13 C          -4.7288    1.7333   -0.5047 C.ar    1  UNL1       -0.0534
     14 C          -4.7269    0.3768   -0.1940 C.ar    1  UNL1       -0.0173
     15 C          -5.9640   -0.2730   -0.0409 C.ar    1  UNL1       -0.0540
     16 C          -6.0341   -1.6432    0.1769 C.ar    1  UNL1       -0.0612
     17 C          -4.8643   -2.3797    0.2105 C.ar    1  UNL1       -0.0611
     18 C          -3.6289   -1.7350    0.0726 C.ar    1  UNL1       -0.0534
     19 C          -3.4966   -0.3289   -0.0729 C.ar    1  UNL1       -0.0095
     20 C          -2.2286    0.3988   -0.1657 C.ar    1  UNL1        0.0019
     21 C           1.4928    0.2612    0.0047 C.ar    1  UNL1        0.0084
     22 C           5.1964   -0.1326    0.2273 C.ar    1  UNL1        0.1312
     23 C           6.1568   -1.0343    0.6774 C.ar    1  UNL1       -0.0162
     24 C           7.4345   -0.4846    0.4156 C.ar    1  UNL1       -0.0233
     25 C           7.2032    0.7264   -0.1818 C.ar    1  UNL1        0.0926
     26 O           5.8729    0.9479   -0.2998 O.2     1  UNL1       -0.4632
     27 H           2.9619    1.0337   -1.3579 H       1  UNL1        0.0364
     28 H           2.9479    1.8205    0.2630 H       1  UNL1        0.0364
     29 H           3.4740   -2.1405    1.2040 H       1  UNL1        0.0643
     30 H          -1.2942   -1.9094    1.2622 H       1  UNL1        0.0836
     31 H          -1.1726    3.4748   -1.2256 H       1  UNL1        0.0836
     32 H          -3.5789    3.4463   -1.0422 H       1  UNL1        0.0624
     33 H          -5.6639    2.2795   -0.6130 H       1  UNL1        0.0624
     34 H          -6.8949    0.2869   -0.1120 H       1  UNL1        0.0624
     35 H          -6.9975   -2.1340    0.2824 H       1  UNL1        0.0618
     36 H          -4.9026   -3.4602    0.3253 H       1  UNL1        0.0618
     37 H          -2.7658   -2.3889    0.0145 H       1  UNL1        0.0624
     38 H           5.9542   -1.9877    1.1453 H       1  UNL1        0.0655
     39 H           8.3995   -0.9182    0.6356 H       1  UNL1        0.0649
     40 H           7.8431    1.5098   -0.5629 H       1  UNL1        0.1029
@<TRIPOS>BOND
     1     1     2    1
     2     2     3    2
     3     3     4    1
     4     4     5   ar
     5     5     6   ar
     6     6     7   ar
     7     7     8   ar
     8     8     9   ar
     9     9    10   ar
    10    10    11   ar
    11    11    12   ar
    12    12    13   ar
    13    13    14   ar
    14    14    15   ar
    15    15    16   ar
    16    16    17   ar
    17    17    18   ar
    18    18    19   ar
    19    19    20   ar
    20     8    21   ar
    21     2    22    1
    22    22    23   ar
    23    23    24   ar
    24    24    25   ar
    25    25    26   ar
    26    21     1    1
    27    26    22   ar
    28    21     4   ar
    29    20     7   ar
    30    20    11   ar
    31    19    14   ar
    32     1    27    1
    33     1    28    1
    34     3    29    1
    35     6    30    1
    36    10    31    1
    37    12    32    1
    38    13    33    1
    39    15    34    1
    40    16    35    1
    41    17    36    1
    42    18    37    1
    43    23    38    1
    44    24    39    1
    45    25    40    1
