@<TRIPOS>MOLECULE
*****
 42 48 0 0 0
SMALL
GASTEIGER

@<TRIPOS>ATOM
      1 C           1.2340   -0.3219    0.4093 C.3     1  UNL1        0.0000
      2 C           2.3933    0.3462   -0.3257 C.2     1  UNL1        0.0000
      3 C           1.9299    1.1675   -1.2890 C.2     1  UNL1        0.0000
      4 C           0.4799    1.1156   -1.2746 C.ar    1  UNL1        0.0000
      5 N          -0.2992    1.8139   -2.1054 N.ar    1  UNL1        0.0000
      6 C          -1.6334    1.6241   -1.9277 C.ar    1  UNL1        0.0000
      7 C          -2.2418    0.7797   -0.9713 C.ar    1  UNL1        0.0000
      8 C          -3.6756    0.6228   -0.8346 C.ar    1  UNL1        0.0000
      9 SI         -5.0795    1.4471   -1.8301 Si      1  UNL1        0.0000
     10 C          -6.3421    0.5150   -0.7927 C.2     1  UNL1        0.0000
     11 C          -5.7830   -0.2773    0.1395 C.2     1  UNL1        0.0000
     12 C          -4.3264   -0.2223    0.1211 C.ar    1  UNL1        0.0000
     13 C          -3.4276   -0.8987    0.9302 C.ar    1  UNL1        0.0000
     14 C          -3.7081   -1.7818    1.9413 C.ar    1  UNL1        0.0000
     15 N          -2.5009   -2.1966    2.4578 N.ar    1  UNL1        0.0000
     16 C          -1.4583   -1.5880    1.7874 C.ar    1  UNL1        0.0000
     17 C          -2.0048   -0.7707    0.8266 C.ar    1  UNL1        0.0000
     18 C          -1.3310    0.0636   -0.1160 C.ar    1  UNL1        0.0000
     19 C           0.0455    0.2495   -0.2878 C.ar    1  UNL1        0.0000
     20 C           3.7915    0.0637    0.0448 C.ar    1  UNL1        0.0000
     21 C           4.1314   -0.8347    1.0905 C.ar    1  UNL1        0.0000
     22 C           5.4559   -1.1417    1.4871 C.ar    1  UNL1        0.0000
     23 C           6.5835   -0.5801    0.8770 C.ar    1  UNL1        0.0000
     24 C           6.3313    0.3274   -0.1764 C.ar    1  UNL1        0.0000
     25 N           7.2784    0.9658   -0.8806 N.ar    1  UNL1        0.0000
     26 S           6.4839    1.9059   -1.9890 S.2     1  UNL1        0.0000
     27 N           4.9105    1.5474   -1.6272 N.ar    1  UNL1        0.0000
     28 C           4.9144    0.6650   -0.6112 C.ar    1  UNL1        0.0000
     29 H           1.2685   -1.4090    0.2852 H       1  UNL1        0.0000
     30 H           1.2315   -0.0432    1.4680 H       1  UNL1        0.0000
     31 H           2.4662    1.7867   -1.9874 H       1  UNL1        0.0000
     32 H          -2.2310    2.2092   -2.6221 H       1  UNL1        0.0000
     33 H          -5.0830    1.0168   -3.2498 H       1  UNL1        0.0000
     34 H          -5.1339    2.9129   -1.6080 H       1  UNL1        0.0000
     35 H          -7.3991    0.6409   -0.9708 H       1  UNL1        0.0000
     36 H          -6.3316   -0.8950    0.8360 H       1  UNL1        0.0000
     37 H          -4.6383   -2.1568    2.3455 H       1  UNL1        0.0000
     38 H          -2.3940   -2.8536    3.2199 H       1  UNL1        0.0000
     39 H          -0.4412   -1.8089    2.0740 H       1  UNL1        0.0000
     40 H           3.3374   -1.3374    1.6436 H       1  UNL1        0.0000
     41 H           5.6041   -1.8477    2.3049 H       1  UNL1        0.0000
     42 H           7.5928   -0.8215    1.1877 H       1  UNL1        0.0000
@<TRIPOS>BOND
     1     1     2    1
     2     2     3    2
     3     3     4    1
     4     4     5   ar
     5     5     6   ar
     6     6     7   ar
     7     7     8   ar
     8     8     9    1
     9     9    10    1
    10    10    11    2
    11    11    12    1
    12    12    13   ar
    13    13    14   ar
    14    14    15   ar
    15    15    16   ar
    16    16    17   ar
    17    17    18   ar
    18    18    19   ar
    19     2    20    1
    20    20    21   ar
    21    21    22   ar
    22    22    23   ar
    23    23    24   ar
    24    24    25   ar
    25    25    26   ar
    26    26    27   ar
    27    27    28   ar
    28    19     1    1
    29    28    20   ar
    30    19     4   ar
    31    28    24   ar
    32    18     7   ar
    33    12     8   ar
    34    17    13   ar
    35     1    29    1
    36     1    30    1
    37     3    31    1
    38     6    32    1
    39     9    33    1
    40     9    34    1
    41    10    35    1
    42    11    36    1
    43    14    37    1
    44    15    38    1
    45    16    39    1
    46    21    40    1
    47    22    41    1
    48    23    42    1
