@<TRIPOS>MOLECULE
*****
 38 43 0 0 0
SMALL
GASTEIGER

@<TRIPOS>ATOM
      1 C          -1.8696   -0.4955    0.2055 C.3     1  UNL1        0.0000
      2 C          -2.9913    0.5155    0.3082 C.2     1  UNL1        0.0000
      3 C          -2.5381    1.7827    0.2856 C.2     1  UNL1        0.0000
      4 C          -1.0950    1.7196    0.1674 C.ar    1  UNL1        0.0000
      5 N          -0.3071    2.7966    0.1154 N.ar    1  UNL1        0.0000
      6 C           1.0204    2.5234    0.0042 C.ar    1  UNL1        0.0000
      7 C           1.6135    1.2414   -0.0585 C.ar    1  UNL1        0.0000
      8 C           3.0407    1.0208   -0.1772 C.ar    1  UNL1        0.0000
      9 SI          4.4545    2.2983   -0.2779 Si      1  UNL1        0.0000
     10 C           5.6978    0.8917   -0.3951 C.2     1  UNL1        0.0000
     11 C           5.1272   -0.3259   -0.3623 C.2     1  UNL1        0.0000
     12 C           3.6757   -0.2614   -0.2434 C.ar    1  UNL1        0.0000
     13 C           2.7684   -1.3069   -0.1813 C.ar    1  UNL1        0.0000
     14 C           3.0328   -2.6523   -0.2180 C.ar    1  UNL1        0.0000
     15 N           1.8217   -3.3016   -0.1267 N.ar    1  UNL1        0.0000
     16 C           0.7929   -2.3856   -0.0326 C.ar    1  UNL1        0.0000
     17 C           1.3520   -1.1303   -0.0640 C.ar    1  UNL1        0.0000
     18 C           0.6942    0.1348    0.0038 C.ar    1  UNL1        0.0000
     19 C          -0.6752    0.3990    0.1183 C.ar    1  UNL1        0.0000
     20 C          -4.3805    0.0857    0.4165 C.ar    1  UNL1        0.0000
     21 N          -5.3180    1.0320    0.5035 N.ar    1  UNL1        0.0000
     22 C          -6.5609    0.5691    0.5995 C.ar    1  UNL1        0.0000
     23 N          -6.9205   -0.7117    0.6143 N.ar    1  UNL1        0.0000
     24 C          -5.8983   -1.5578    0.5216 C.ar    1  UNL1        0.0000
     25 N          -4.6127   -1.2286    0.4206 N.ar    1  UNL1        0.0000
     26 H          -1.9695   -1.1033   -0.6993 H       1  UNL1        0.0000
     27 H          -1.8229   -1.1236    1.1007 H       1  UNL1        0.0000
     28 H          -3.0989    2.7004    0.3416 H       1  UNL1        0.0000
     29 H           1.6268    3.4248   -0.0350 H       1  UNL1        0.0000
     30 H           4.3892    3.1043   -1.5218 H       1  UNL1        0.0000
     31 H           4.5927    3.0761    0.9778 H       1  UNL1        0.0000
     32 H           6.7539    1.0980   -0.4787 H       1  UNL1        0.0000
     33 H           5.6637   -1.2623   -0.4166 H       1  UNL1        0.0000
     34 H           3.9536   -3.2132   -0.2993 H       1  UNL1        0.0000
     35 H           1.7025   -4.3065   -0.1284 H       1  UNL1        0.0000
     36 H          -0.2255   -2.7361    0.0463 H       1  UNL1        0.0000
     37 H          -7.3547    1.3047    0.6724 H       1  UNL1        0.0000
     38 H          -6.1354   -2.6163    0.5289 H       1  UNL1        0.0000
@<TRIPOS>BOND
     1     1     2    1
     2     2     3    2
     3     3     4    1
     4     4     5   ar
     5     5     6   ar
     6     6     7   ar
     7     7     8   ar
     8     8     9    1
     9     9    10    1
    10    10    11    2
    11    11    12    1
    12    12    13   ar
    13    13    14   ar
    14    14    15   ar
    15    15    16   ar
    16    16    17   ar
    17    17    18   ar
    18    18    19   ar
    19     2    20    1
    20    20    21   ar
    21    21    22   ar
    22    22    23   ar
    23    23    24   ar
    24    24    25   ar
    25    19     1    1
    26    25    20   ar
    27    19     4   ar
    28    18     7   ar
    29    12     8   ar
    30    17    13   ar
    31     1    26    1
    32     1    27    1
    33     3    28    1
    34     6    29    1
    35     9    30    1
    36     9    31    1
    37    10    32    1
    38    11    33    1
    39    14    34    1
    40    15    35    1
    41    16    36    1
    42    22    37    1
    43    24    38    1
