@<TRIPOS>MOLECULE
*****
 44 50 0 0 0
SMALL
GASTEIGER

@<TRIPOS>ATOM
      1 SI          2.0962    1.1758    3.5963 Si      1  UNL1        0.0000
      2 C           3.0470    1.4134    2.0124 C.2     1  UNL1        0.0000
      3 C           2.3268    1.0390    0.9316 C.ar    1  UNL1        0.0000
      4 C           2.7518    1.2366   -0.4802 C.ar    1  UNL1        0.0000
      5 C           1.8362    1.0232   -1.4592 C.ar    1  UNL1        0.0000
      6 C           0.5665    0.5162   -1.0825 C.ar    1  UNL1        0.0000
      7 N          -0.4265    0.2979   -1.9895 N.ar    1  UNL1        0.0000
      8 C          -1.4788   -0.2670   -1.3335 C.ar    1  UNL1        0.0000
      9 C          -2.8473   -0.6649   -1.9133 C.ar    1  UNL1        0.0000
     10 N          -3.3335   -0.4902   -3.1729 N.ar    1  UNL1        0.0000
     11 C          -4.6135   -0.9814   -3.2225 C.ar    1  UNL1        0.0000
     12 C          -4.9234   -1.4801   -1.9728 C.ar    1  UNL1        0.0000
     13 C          -3.7943   -1.2821   -1.1239 C.ar    1  UNL1        0.0000
     14 C          -3.4295   -1.5784    0.2198 C.ar    1  UNL1        0.0000
     15 C          -4.3630   -2.2714    1.0163 C.ar    1  UNL1        0.0000
     16 C          -4.0382   -2.6614    2.3145 C.ar    1  UNL1        0.0000
     17 C          -2.7747   -2.3890    2.8273 C.ar    1  UNL1        0.0000
     18 C          -1.8350   -1.6919    2.0610 C.ar    1  UNL1        0.0000
     19 C          -2.1366   -1.2251    0.7668 C.ar    1  UNL1        0.0000
     20 C          -1.1674   -0.4814    0.0057 C.ar    1  UNL1        0.0000
     21 C           0.1009    0.1647    0.1764 C.ar    1  UNL1        0.0000
     22 C           0.9567    0.5096    1.2752 C.ar    1  UNL1        0.0000
     23 C           0.6547    0.5796    2.5856 C.2     1  UNL1        0.0000
     24 C           4.0559    1.6500   -0.9229 C.ar    1  UNL1        0.0000
     25 C           5.3147    1.3100   -0.4324 C.ar    1  UNL1        0.0000
     26 C           6.2905    1.9677   -1.2174 C.ar    1  UNL1        0.0000
     27 C           5.5936    2.6732   -2.1625 C.ar    1  UNL1        0.0000
     28 O           4.2619    2.4858   -2.0066 O.2     1  UNL1        0.0000
     29 H           2.6773    0.1078    4.4452 H       1  UNL1        0.0000
     30 H           1.8221    2.4571    4.2895 H       1  UNL1        0.0000
     31 H           4.0197    1.8766    2.0296 H       1  UNL1        0.0000
     32 H           2.0771    1.1706   -2.5079 H       1  UNL1        0.0000
     33 H          -0.3847    0.5037   -2.9768 H       1  UNL1        0.0000
     34 H          -2.8432   -0.0571   -3.9424 H       1  UNL1        0.0000
     35 H          -5.1900   -0.9383   -4.1366 H       1  UNL1        0.0000
     36 H          -5.8626   -1.9440   -1.7031 H       1  UNL1        0.0000
     37 H          -5.3448   -2.5294    0.6283 H       1  UNL1        0.0000
     38 H          -4.7636   -3.2039    2.9149 H       1  UNL1        0.0000
     39 H          -2.5086   -2.7330    3.8236 H       1  UNL1        0.0000
     40 H          -0.8409   -1.5720    2.4733 H       1  UNL1        0.0000
     41 H          -0.2950    0.3927    3.0551 H       1  UNL1        0.0000
     42 H           5.4988    0.6448    0.4002 H       1  UNL1        0.0000
     43 H           7.3649    1.9254   -1.1106 H       1  UNL1        0.0000
     44 H           5.8818    3.3204   -2.9789 H       1  UNL1        0.0000
@<TRIPOS>BOND
     1     1     2    1
     2     2     3    2
     3     3     4   ar
     4     4     5   ar
     5     5     6   ar
     6     6     7   ar
     7     7     8   ar
     8     8     9   ar
     9     9    10   ar
    10    10    11   ar
    11    11    12   ar
    12    12    13   ar
    13    13    14   ar
    14    14    15   ar
    15    15    16   ar
    16    16    17   ar
    17    17    18   ar
    18    18    19   ar
    19    19    20   ar
    20    20    21   ar
    21    21    22   ar
    22    22    23    2
    23     4    24    1
    24    24    25   ar
    25    25    26   ar
    26    26    27   ar
    27    27    28   ar
    28    23     1    1
    29    28    24   ar
    30    22     3   ar
    31    21     6   ar
    32    20     8   ar
    33    13     9   ar
    34    19    14   ar
    35     1    29    1
    36     1    30    1
    37     2    31    1
    38     5    32    1
    39     7    33    1
    40    10    34    1
    41    11    35    1
    42    12    36    1
    43    15    37    1
    44    16    38    1
    45    17    39    1
    46    18    40    1
    47    23    41    1
    48    25    42    1
    49    26    43    1
    50    27    44    1
