@<TRIPOS>MOLECULE
*****
 40 45 0 0 0
SMALL
GASTEIGER

@<TRIPOS>ATOM
      1 C           2.1284    1.2652   -0.1179 C.3     1  UNL1        0.0038
      2 C           2.9271   -0.0502    0.1356 C.2     1  UNL1       -0.0323
      3 C           2.0879   -1.1145    0.2822 C.2     1  UNL1       -0.0149
      4 C           0.7736   -0.6199    0.1469 C.ar    1  UNL1        0.1344
      5 O          -0.4741   -1.1481    0.1872 O.2     1  UNL1       -0.4529
      6 C          -1.2908   -0.0637   -0.0278 C.ar    1  UNL1        0.1617
      7 C          -0.5694    1.0773   -0.1922 C.ar    1  UNL1        0.0902
      8 N          -1.4515    2.0973   -0.3988 N.ar    1  UNL1       -0.3513
      9 C          -2.7364    1.5769   -0.3611 C.ar    1  UNL1        0.0511
     10 C          -3.9582    2.2402   -0.5207 C.ar    1  UNL1       -0.0371
     11 C          -5.1347    1.4844   -0.4389 C.ar    1  UNL1       -0.0521
     12 C          -5.1124    0.1019   -0.2046 C.ar    1  UNL1       -0.0171
     13 C          -6.2954   -0.6500   -0.1237 C.ar    1  UNL1       -0.0540
     14 C          -6.2541   -2.0277    0.1105 C.ar    1  UNL1       -0.0612
     15 C          -5.0313   -2.6772    0.2677 C.ar    1  UNL1       -0.0611
     16 C          -3.8420   -1.9531    0.1918 C.ar    1  UNL1       -0.0533
     17 C          -3.8734   -0.5641   -0.0440 C.ar    1  UNL1       -0.0052
     18 C          -2.6759    0.1921   -0.1250 C.ar    1  UNL1        0.0503
     19 C           0.7688    0.7292   -0.0810 C.ar    1  UNL1        0.0261
     20 C           4.4007   -0.0651    0.1963 C.ar    1  UNL1       -0.0214
     21 C           5.1139   -1.2536    0.4221 C.ar    1  UNL1       -0.0543
     22 C           6.5119   -1.2626    0.4789 C.ar    1  UNL1       -0.0612
     23 C           7.2254   -0.0809    0.3106 C.ar    1  UNL1       -0.0617
     24 C           6.5409    1.1086    0.0856 C.ar    1  UNL1       -0.0612
     25 C           5.1427    1.1153    0.0292 C.ar    1  UNL1       -0.0543
     26 H           2.3010    1.9924    0.6811 H       1  UNL1        0.0363
     27 H           2.3711    1.6927   -1.0952 H       1  UNL1        0.0363
     28 H           2.3251   -2.1493    0.4663 H       1  UNL1        0.0657
     29 H          -1.1853    3.0607   -0.5510 H       1  UNL1        0.1660
     30 H          -4.0029    3.3094   -0.7029 H       1  UNL1        0.0638
     31 H          -6.0868    1.9975   -0.5626 H       1  UNL1        0.0624
     32 H          -7.2626   -0.1672   -0.2428 H       1  UNL1        0.0624
     33 H          -7.1798   -2.5942    0.1702 H       1  UNL1        0.0618
     34 H          -5.0021   -3.7482    0.4497 H       1  UNL1        0.0618
     35 H          -2.8942   -2.4719    0.3162 H       1  UNL1        0.0624
     36 H           4.5982   -2.2002    0.5591 H       1  UNL1        0.0624
     37 H           7.0401   -2.1963    0.6551 H       1  UNL1        0.0618
     38 H           8.3112   -0.0873    0.3546 H       1  UNL1        0.0618
     39 H           7.0931    2.0356   -0.0467 H       1  UNL1        0.0618
     40 H           4.6523    2.0684   -0.1487 H       1  UNL1        0.0624
@<TRIPOS>BOND
     1     1     2    1
     2     2     3    2
     3     3     4    1
     4     4     5   ar
     5     5     6   ar
     6     6     7   ar
     7     7     8   ar
     8     8     9   ar
     9     9    10   ar
    10    10    11   ar
    11    11    12   ar
    12    12    13   ar
    13    13    14   ar
    14    14    15   ar
    15    15    16   ar
    16    16    17   ar
    17    17    18   ar
    18     7    19   ar
    19     2    20    1
    20    20    21   ar
    21    21    22   ar
    22    22    23   ar
    23    23    24   ar
    24    24    25   ar
    25    19     1    1
    26    25    20   ar
    27    19     4   ar
    28    18     6   ar
    29    18     9   ar
    30    17    12   ar
    31     1    26    1
    32     1    27    1
    33     3    28    1
    34     8    29    1
    35    10    30    1
    36    11    31    1
    37    13    32    1
    38    14    33    1
    39    15    34    1
    40    16    35    1
    41    21    36    1
    42    22    37    1
    43    23    38    1
    44    24    39    1
    45    25    40    1
