@<TRIPOS>MOLECULE
*****
 33 38 0 0 0
SMALL
GASTEIGER

@<TRIPOS>ATOM
      1 C           0.1655   -0.8728    0.2676 C.3     1  UNL1        0.0000
      2 C           0.9263    0.3912    0.7774 C.2     1  UNL1        0.0000
      3 C           0.0647    1.4021    1.0848 C.2     1  UNL1        0.0000
      4 C          -1.2376    0.9243    0.8249 C.ar    1  UNL1        0.0000
      5 O          -2.5026    1.4345    0.9220 O.2     1  UNL1        0.0000
      6 C          -3.2186    0.3800    0.4959 C.ar    1  UNL1        0.0000
      7 C          -2.5329   -0.7316    0.1417 C.ar    1  UNL1        0.0000
      8 N          -3.4969   -1.6313   -0.2457 N.ar    1  UNL1        0.0000
      9 C          -4.7449   -1.0604   -0.1249 C.ar    1  UNL1        0.0000
     10 C          -6.1450   -1.1639   -0.2561 C.ar    1  UNL1        0.0000
     11 C          -6.5968    0.0865    0.1621 C.ar    1  UNL1        0.0000
     12 O          -5.5867    0.9446    0.5378 O.2     1  UNL1        0.0000
     13 C          -4.5152    0.1793    0.3360 C.ar    1  UNL1        0.0000
     14 C          -1.2075   -0.3783    0.3566 C.ar    1  UNL1        0.0000
     15 C           2.3320    0.5522    0.9252 C.ar    1  UNL1        0.0000
     16 S           3.0214    1.0406    2.4498 S.2     1  UNL1        0.0000
     17 C           4.6420    0.9677    1.8648 C.ar    1  UNL1        0.0000
     18 C           4.6638    0.5816    0.5538 C.ar    1  UNL1        0.0000
     19 C           5.7654    0.3893   -0.3392 C.2     1  UNL1        0.0000
     20 C           5.4231    0.0093   -1.5895 C.2     1  UNL1        0.0000
     21 SI          3.5276   -0.1495   -1.7710 Si      1  UNL1        0.0000
     22 C           3.3575    0.3502    0.0432 C.ar    1  UNL1        0.0000
     23 H           0.4478   -1.1167   -0.7596 H       1  UNL1        0.0000
     24 H           0.3463   -1.7240    0.9301 H       1  UNL1        0.0000
     25 H           0.2944    2.3904    1.4527 H       1  UNL1        0.0000
     26 H          -3.3189   -2.5726   -0.5697 H       1  UNL1        0.0000
     27 H          -6.7480   -1.9931   -0.5941 H       1  UNL1        0.0000
     28 H          -7.5886    0.5111    0.2479 H       1  UNL1        0.0000
     29 H           5.4680    1.2124    2.5176 H       1  UNL1        0.0000
     30 H           6.7919    0.5411   -0.0257 H       1  UNL1        0.0000
     31 H           6.0798   -0.1898   -2.4209 H       1  UNL1        0.0000
     32 H           3.1254   -1.5543   -2.0357 H       1  UNL1        0.0000
     33 H           2.9973    0.8501   -2.7304 H       1  UNL1        0.0000
@<TRIPOS>BOND
     1     1     2    1
     2     2     3    2
     3     3     4    1
     4     4     5   ar
     5     5     6   ar
     6     6     7   ar
     7     7     8   ar
     8     8     9   ar
     9     9    10   ar
    10    10    11   ar
    11    11    12   ar
    12    12    13   ar
    13     7    14   ar
    14     2    15    1
    15    15    16   ar
    16    16    17   ar
    17    17    18   ar
    18    18    19    1
    19    19    20    2
    20    20    21    1
    21    21    22    1
    22    14     1    1
    23    22    15   ar
    24    14     4   ar
    25    22    18   ar
    26    13     6   ar
    27    13     9   ar
    28     1    23    1
    29     1    24    1
    30     3    25    1
    31     8    26    1
    32    10    27    1
    33    11    28    1
    34    17    29    1
    35    19    30    1
    36    20    31    1
    37    21    32    1
    38    21    33    1
