@<TRIPOS>MOLECULE
*****
 39 44 0 0 0
SMALL
GASTEIGER

@<TRIPOS>ATOM
      1 C           1.6277   -0.7546    0.1923 C.3     1  UNL1        0.0000
      2 C           2.6776    0.1730   -0.4850 C.2     1  UNL1        0.0000
      3 C           2.0783    1.2329   -1.0921 C.2     1  UNL1        0.0000
      4 C           0.6942    1.0909   -0.8752 C.ar    1  UNL1        0.0000
      5 O          -0.4233    1.7855   -1.2065 O.2     1  UNL1        0.0000
      6 C          -1.4501    1.0658   -0.6620 C.ar    1  UNL1        0.0000
      7 C          -0.9958   -0.0623    0.0016 C.ar    1  UNL1        0.0000
      8 C           0.3842   -0.0348   -0.1428 C.ar    1  UNL1        0.0000
      9 C          -1.9412   -0.9202    0.6248 C.ar    1  UNL1        0.0000
     10 C          -1.6834   -2.0507    1.3082 C.2     1  UNL1        0.0000
     11 SI         -3.2594   -2.8252    1.9369 Si      1  UNL1        0.0000
     12 C          -4.2155   -1.4191    1.1454 C.2     1  UNL1        0.0000
     13 C          -3.3912   -0.5477    0.5249 C.ar    1  UNL1        0.0000
     14 C          -3.8271    0.6872   -0.2073 C.ar    1  UNL1        0.0000
     15 C          -5.1592    1.0832   -0.3329 C.ar    1  UNL1        0.0000
     16 C          -5.4398    2.2473   -1.0351 C.ar    1  UNL1        0.0000
     17 N          -4.5038    3.0333   -1.6122 N.ar    1  UNL1        0.0000
     18 C          -3.2145    2.6394   -1.4840 C.ar    1  UNL1        0.0000
     19 C          -2.8274    1.4960   -0.8046 C.ar    1  UNL1        0.0000
     20 C           4.1184   -0.1221   -0.4345 C.ar    1  UNL1        0.0000
     21 C           5.0732    0.7037   -1.0399 C.ar    1  UNL1        0.0000
     22 C           6.4309    0.3885   -0.9694 C.ar    1  UNL1        0.0000
     23 C           6.8069   -0.7550   -0.2894 C.ar    1  UNL1        0.0000
     24 N           5.9303   -1.5836    0.3105 N.ar    1  UNL1        0.0000
     25 C           4.6184   -1.2479    0.2229 C.ar    1  UNL1        0.0000
     26 H           1.7829   -0.8035    1.2744 H       1  UNL1        0.0000
     27 H           1.6419   -1.7560   -0.2486 H       1  UNL1        0.0000
     28 H           2.5233    2.0460   -1.6418 H       1  UNL1        0.0000
     29 H          -0.7206   -2.4960    1.4984 H       1  UNL1        0.0000
     30 H          -3.3521   -2.8021    3.4159 H       1  UNL1        0.0000
     31 H          -3.5467   -4.1291    1.2937 H       1  UNL1        0.0000
     32 H          -5.2894   -1.3870    1.2237 H       1  UNL1        0.0000
     33 H          -5.9736    0.5140    0.0975 H       1  UNL1        0.0000
     34 H          -6.4641    2.5901   -1.1557 H       1  UNL1        0.0000
     35 H          -2.4851    3.2903   -1.9578 H       1  UNL1        0.0000
     36 H           4.7839    1.6032   -1.5755 H       1  UNL1        0.0000
     37 H           7.1755    1.0238   -1.4361 H       1  UNL1        0.0000
     38 H           7.8510   -1.0424   -0.2071 H       1  UNL1        0.0000
     39 H           3.9647   -1.9547    0.7259 H       1  UNL1        0.0000
@<TRIPOS>BOND
     1     1     2    1
     2     2     3    2
     3     3     4    1
     4     4     5   ar
     5     5     6   ar
     6     6     7   ar
     7     7     8   ar
     8     7     9   ar
     9     9    10    2
    10    10    11    1
    11    11    12    1
    12    12    13    2
    13    13    14   ar
    14    14    15   ar
    15    15    16   ar
    16    16    17   ar
    17    17    18   ar
    18    18    19   ar
    19     2    20    1
    20    20    21   ar
    21    21    22   ar
    22    22    23   ar
    23    23    24   ar
    24    24    25   ar
    25     8     1    1
    26    13     9   ar
    27    19    14   ar
    28    25    20   ar
    29     8     4   ar
    30    19     6   ar
    31     1    26    1
    32     1    27    1
    33     3    28    1
    34    10    29    1
    35    11    30    1
    36    11    31    1
    37    12    32    1
    38    15    33    1
    39    16    34    1
    40    18    35    1
    41    21    36    1
    42    22    37    1
    43    23    38    1
    44    25    39    1
