@<TRIPOS>MOLECULE
*****
 40 46 0 0 0
SMALL
GASTEIGER

@<TRIPOS>ATOM
      1 C          -1.7940    0.9624   -0.1320 C.3     1  UNL1        0.0039
      2 C          -2.7847   -0.2173   -0.0046 C.2     1  UNL1       -0.0141
      3 C          -2.1374   -1.4086    0.1008 C.2     1  UNL1       -0.0135
      4 C          -0.7606   -1.1182    0.0536 C.ar    1  UNL1        0.1330
      5 O           0.3928   -1.8335    0.1062 O.2     1  UNL1       -0.4544
      6 C           1.4245   -0.9138    0.0033 C.ar    1  UNL1        0.1464
      7 C           0.8506    0.3467   -0.1099 C.ar    1  UNL1        0.0340
      8 C          -0.5157    0.2316   -0.0797 C.ar    1  UNL1        0.0105
      9 C           1.7247    1.4467   -0.2279 C.ar    1  UNL1        0.0110
     10 C           1.4470    2.7731   -0.3516 C.ar    1  UNL1        0.0101
     11 N           2.6847    3.3790   -0.4270 N.ar    1  UNL1       -0.3659
     12 C           3.6934    2.4289   -0.3497 C.ar    1  UNL1        0.0100
     13 C           3.1070    1.1871   -0.2222 C.ar    1  UNL1        0.0080
     14 C           3.7642   -0.0655   -0.1108 C.ar    1  UNL1       -0.0030
     15 C           5.1804   -0.2574   -0.1120 C.ar    1  UNL1       -0.0511
     16 C           5.7723   -1.5251    0.0017 C.ar    1  UNL1       -0.0329
     17 C           4.8944   -2.6310    0.1203 C.ar    1  UNL1        0.1006
     18 N           5.2829   -3.9103    0.2379 N.ar    1  UNL1       -0.1908
     19 S           3.8959   -4.8136    0.3440 S.2     1  UNL1        0.1165
     20 N           2.7447   -3.6292    0.2461 N.ar    1  UNL1       -0.1900
     21 C           3.3875   -2.4539    0.1242 C.ar    1  UNL1        0.1111
     22 C           2.8182   -1.1556    0.0072 C.ar    1  UNL1        0.0538
     23 C          -4.2386   -0.0389   -0.0012 C.ar    1  UNL1        0.0674
     24 C          -4.8348    1.2147   -0.1133 C.ar    1  UNL1       -0.0360
     25 C          -6.2262    1.3085   -0.1025 C.ar    1  UNL1       -0.0583
     26 C          -6.9865    0.1538    0.0194 C.ar    1  UNL1       -0.0436
     27 C          -6.3201   -1.0528    0.1260 C.ar    1  UNL1        0.0282
     28 N          -4.9744   -1.1710    0.1182 N.ar    1  UNL1       -0.2553
     29 H          -1.9192    1.4853   -1.0850 H       1  UNL1        0.0363
     30 H          -1.8940    1.6577    0.7069 H       1  UNL1        0.0363
     31 H          -2.5696   -2.3924    0.2016 H       1  UNL1        0.0658
     32 H           0.5316    3.3458   -0.3939 H       1  UNL1        0.0813
     33 H           2.8379    4.3746   -0.5248 H       1  UNL1        0.1648
     34 H           4.7263    2.7459   -0.3946 H       1  UNL1        0.0813
     35 H           5.8379    0.6056   -0.2042 H       1  UNL1        0.0624
     36 H           6.8475   -1.6600   -0.0003 H       1  UNL1        0.0640
     37 H          -4.2459    2.1196   -0.2087 H       1  UNL1        0.0639
     38 H          -6.7105    2.2771   -0.1888 H       1  UNL1        0.0619
     39 H          -8.0698    0.1918    0.0312 H       1  UNL1        0.0633
     40 H          -6.8645   -1.9877    0.2238 H       1  UNL1        0.0830
@<TRIPOS>BOND
     1     1     2    1
     2     2     3    2
     3     3     4    1
     4     4     5   ar
     5     5     6   ar
     6     6     7   ar
     7     7     8   ar
     8     7     9   ar
     9     9    10   ar
    10    10    11   ar
    11    11    12   ar
    12    12    13   ar
    13    13    14   ar
    14    14    15   ar
    15    15    16   ar
    16    16    17   ar
    17    17    18   ar
    18    18    19   ar
    19    19    20   ar
    20    20    21   ar
    21    21    22   ar
    22     2    23    1
    23    23    24   ar
    24    24    25   ar
    25    25    26   ar
    26    26    27   ar
    27    27    28   ar
    28     8     1    1
    29    13     9   ar
    30    22    14   ar
    31    28    23   ar
    32     8     4   ar
    33    21    17   ar
    34    22     6   ar
    35     1    29    1
    36     1    30    1
    37     3    31    1
    38    10    32    1
    39    11    33    1
    40    12    34    1
    41    15    35    1
    42    16    36    1
    43    24    37    1
    44    25    38    1
    45    26    39    1
    46    27    40    1
