@<TRIPOS>MOLECULE
*****
 32 37 0 0 0
SMALL
GASTEIGER

@<TRIPOS>ATOM
      1 C          -2.2063   -0.8216   -0.5802 C.3     1  UNL1        0.0030
      2 C          -2.9424    0.2743    0.2572 C.2     1  UNL1       -0.0242
      3 C          -2.0415    1.0753    0.8905 C.2     1  UNL1       -0.0144
      4 C          -0.7617    0.6031    0.5440 C.ar    1  UNL1        0.1330
      5 O           0.5119    0.9441    0.8269 O.2     1  UNL1       -0.4543
      6 C           1.3059    0.0489    0.1458 C.ar    1  UNL1        0.1487
      7 C           0.5177   -0.8603   -0.5697 C.ar    1  UNL1        0.0430
      8 C           1.1609   -1.8401   -1.3185 C.ar    1  UNL1        0.0393
      9 N           2.5195   -1.9011   -1.3456 N.ar    1  UNL1       -0.2541
     10 C           3.2691   -1.0252   -0.6565 C.ar    1  UNL1        0.0767
     11 C           4.6647   -1.1521   -0.7339 C.ar    1  UNL1       -0.0335
     12 C           5.5947   -0.3188   -0.0751 C.ar    1  UNL1       -0.0315
     13 C           5.0478    0.7146    0.7167 C.ar    1  UNL1        0.1007
     14 N           5.7482    1.6136    1.4230 N.ar    1  UNL1       -0.1908
     15 S           4.6339    2.5948    2.1658 S.2     1  UNL1        0.1165
     16 N           3.2197    1.9214    1.6236 N.ar    1  UNL1       -0.1900
     17 C           3.5536    0.8892    0.8296 C.ar    1  UNL1        0.1126
     18 C           2.6942    0.0027    0.1307 C.ar    1  UNL1        0.0713
     19 C          -0.7997   -0.4804   -0.2952 C.ar    1  UNL1        0.0113
     20 C          -4.3578    0.4409    0.3653 C.ar    1  UNL1        0.0352
     21 C          -5.3606   -0.3127   -0.2325 C.ar    1  UNL1        0.0422
     22 N          -6.6650    0.0552    0.0330 N.ar    1  UNL1       -0.2551
     23 C          -6.6594    1.0930    0.8360 C.ar    1  UNL1        0.0652
     24 S          -5.1220    1.6736    1.3078 S.2     1  UNL1       -0.0758
     25 H          -2.4437   -0.7207   -1.6434 H       1  UNL1        0.0363
     26 H          -2.4647   -1.8220   -0.2206 H       1  UNL1        0.0363
     27 H          -2.2137    1.9187    1.5408 H       1  UNL1        0.0657
     28 H           0.6353   -2.5862   -1.9039 H       1  UNL1        0.0837
     29 H           5.0606   -1.9596   -1.3530 H       1  UNL1        0.0640
     30 H           6.6645   -0.4614   -0.1694 H       1  UNL1        0.0640
     31 H          -5.1914   -1.1604   -0.8859 H       1  UNL1        0.0841
     32 H          -7.5723    1.5592    1.1832 H       1  UNL1        0.0907
@<TRIPOS>BOND
     1     1     2    1
     2     2     3    2
     3     3     4    1
     4     4     5   ar
     5     5     6   ar
     6     6     7   ar
     7     7     8   ar
     8     8     9   ar
     9     9    10   ar
    10    10    11   ar
    11    11    12   ar
    12    12    13   ar
    13    13    14   ar
    14    14    15   ar
    15    15    16   ar
    16    16    17   ar
    17    17    18   ar
    18     7    19   ar
    19     2    20    1
    20    20    21   ar
    21    21    22   ar
    22    22    23   ar
    23    23    24   ar
    24    19     1    1
    25    24    20   ar
    26    19     4   ar
    27    18     6   ar
    28    18    10   ar
    29    17    13   ar
    30     1    25    1
    31     1    26    1
    32     3    27    1
    33     8    28    1
    34    11    29    1
    35    12    30    1
    36    21    31    1
    37    23    32    1
