@<TRIPOS>MOLECULE
*****
 38 43 0 0 0
SMALL
GASTEIGER

@<TRIPOS>ATOM
      1 C          -0.5287    0.3211    1.4263 C.3     1  UNL1        0.0025
      2 C          -1.5545   -0.2830    0.4339 C.2     1  UNL1       -0.0316
      3 C          -0.9597   -0.6979   -0.7145 C.2     1  UNL1       -0.0150
      4 C           0.4084   -0.3966   -0.5790 C.ar    1  UNL1        0.1330
      5 O           1.5184   -0.5351   -1.3343 O.2     1  UNL1       -0.4544
      6 C           2.5502   -0.0180   -0.5807 C.ar    1  UNL1        0.1465
      7 C           2.0822    0.4457    0.6527 C.ar    1  UNL1        0.0429
      8 C           3.0023    1.0004    1.5366 C.ar    1  UNL1        0.0393
      9 N           4.3162    1.0826    1.1979 N.ar    1  UNL1       -0.2541
     10 C           4.7488    0.6299    0.0030 C.ar    1  UNL1        0.0745
     11 C           6.0934    0.7205   -0.3298 C.ar    1  UNL1       -0.0356
     12 C           6.5849    0.2620   -1.5610 C.ar    1  UNL1       -0.0597
     13 C           5.7214   -0.3055   -2.4965 C.ar    1  UNL1       -0.0610
     14 C           4.3670   -0.4147   -2.2018 C.ar    1  UNL1       -0.0490
     15 C           3.8985    0.0535   -0.9582 C.ar    1  UNL1        0.0432
     16 C           0.7080    0.1898    0.6264 C.ar    1  UNL1        0.0113
     17 C          -2.9611   -0.3890    0.7826 C.ar    1  UNL1       -0.0107
     18 C          -3.4534   -0.7125    2.0749 C.ar    1  UNL1       -0.0536
     19 C          -4.8512   -0.8093    2.4175 C.ar    1  UNL1       -0.0605
     20 C          -5.9108   -0.5814    1.5117 C.ar    1  UNL1       -0.0510
     21 C          -5.4084   -0.2479    0.2625 C.ar    1  UNL1        0.0204
     22 C          -6.1375    0.0666   -0.8521 C.ar    1  UNL1        0.0994
     23 O          -5.2875    0.3714   -1.8786 O.2     1  UNL1       -0.4698
     24 C          -4.0084    0.2467   -1.4071 C.ar    1  UNL1        0.1000
     25 C          -4.0271   -0.1537   -0.0941 C.ar    1  UNL1        0.0272
     26 H          -0.7621    1.3675    1.6444 H       1  UNL1        0.0363
     27 H          -0.4680   -0.2621    2.3497 H       1  UNL1        0.0363
     28 H          -1.4040   -1.1826   -1.5692 H       1  UNL1        0.0657
     29 H           2.7341    1.3862    2.5134 H       1  UNL1        0.0837
     30 H           6.7817    1.1606    0.3881 H       1  UNL1        0.0639
     31 H           7.6455    0.3512   -1.7837 H       1  UNL1        0.0618
     32 H           6.1040   -0.6602   -3.4500 H       1  UNL1        0.0618
     33 H           3.6822   -0.8550   -2.9218 H       1  UNL1        0.0625
     34 H          -2.7406   -0.9249    2.8727 H       1  UNL1        0.0624
     35 H          -5.1028   -1.0772    3.4450 H       1  UNL1        0.0618
     36 H          -6.9550   -0.6520    1.7802 H       1  UNL1        0.0625
     37 H          -7.1910    0.1342   -1.0835 H       1  UNL1        0.1035
     38 H          -3.2354    0.4834   -2.1239 H       1  UNL1        0.1036
@<TRIPOS>BOND
     1     1     2    1
     2     2     3    2
     3     3     4    1
     4     4     5   ar
     5     5     6   ar
     6     6     7   ar
     7     7     8   ar
     8     8     9   ar
     9     9    10   ar
    10    10    11   ar
    11    11    12   ar
    12    12    13   ar
    13    13    14   ar
    14    14    15   ar
    15     7    16   ar
    16     2    17    1
    17    17    18   ar
    18    18    19   ar
    19    19    20   ar
    20    20    21   ar
    21    21    22   ar
    22    22    23   ar
    23    23    24   ar
    24    24    25   ar
    25    16     1    1
    26    25    17   ar
    27    16     4   ar
    28    25    21   ar
    29    15     6   ar
    30    15    10   ar
    31     1    26    1
    32     1    27    1
    33     3    28    1
    34     8    29    1
    35    11    30    1
    36    12    31    1
    37    13    32    1
    38    14    33    1
    39    18    34    1
    40    19    35    1
    41    20    36    1
    42    22    37    1
    43    24    38    1
