@<TRIPOS>MOLECULE
*****
 37 42 0 0 0
SMALL
GASTEIGER

@<TRIPOS>ATOM
      1 C          -0.5277   -1.3299   -0.0864 C.3     1  UNL1        0.0000
      2 C          -1.4241   -0.1261   -0.4616 C.2     1  UNL1        0.0000
      3 C          -0.6985    0.9967   -0.6984 C.2     1  UNL1        0.0000
      4 C           0.6469    0.6414   -0.4872 C.ar    1  UNL1        0.0000
      5 O           1.8425    1.2668   -0.5425 O.2     1  UNL1        0.0000
      6 C           2.7735    0.3129   -0.2133 C.ar    1  UNL1        0.0000
      7 C           4.1341    0.4767   -0.1344 C.ar    1  UNL1        0.0000
      8 SI          5.1930    1.9186   -0.4122 Si      1  UNL1        0.0000
      9 C           6.6791    0.8143    0.0048 C.2     1  UNL1        0.0000
     10 C           6.3083   -0.4482    0.2975 C.2     1  UNL1        0.0000
     11 C           4.8541   -0.6608    0.2230 C.ar    1  UNL1        0.0000
     12 N           4.3247   -1.8696    0.4877 N.ar    1  UNL1        0.0000
     13 C           2.9740   -2.0104    0.4042 C.ar    1  UNL1        0.0000
     14 C           2.1644   -0.9240    0.0517 C.ar    1  UNL1        0.0000
     15 C           0.7999   -0.6787   -0.1337 C.ar    1  UNL1        0.0000
     16 C          -2.8657   -0.2678   -0.5748 C.ar    1  UNL1        0.0000
     17 C          -3.4926   -1.2965   -1.3209 C.ar    1  UNL1        0.0000
     18 C          -4.9116   -1.4494   -1.4456 C.ar    1  UNL1        0.0000
     19 C          -5.8524   -0.5979   -0.8310 C.ar    1  UNL1        0.0000
     20 C          -5.2355    0.4036   -0.0819 C.ar    1  UNL1        0.0000
     21 C          -5.9561    1.3372    0.6210 C.ar    1  UNL1        0.0000
     22 S          -4.9201    2.4128    1.4682 S.2     1  UNL1        0.0000
     23 C          -3.5050    1.6213    0.8928 C.ar    1  UNL1        0.0000
     24 C          -3.8051    0.5739    0.0513 C.ar    1  UNL1        0.0000
     25 H          -0.7638   -1.6983    0.9163 H       1  UNL1        0.0000
     26 H          -0.6043   -2.1359   -0.8219 H       1  UNL1        0.0000
     27 H          -1.0479    1.9711   -1.0025 H       1  UNL1        0.0000
     28 H           5.0550    3.0004    0.5949 H       1  UNL1        0.0000
     29 H           5.2701    2.3767   -1.8221 H       1  UNL1        0.0000
     30 H           7.6831    1.2090   -0.0077 H       1  UNL1        0.0000
     31 H           6.9706   -1.2585    0.5655 H       1  UNL1        0.0000
     32 H           2.5802   -2.9961    0.6240 H       1  UNL1        0.0000
     33 H          -2.8693   -2.0135   -1.8567 H       1  UNL1        0.0000
     34 H          -5.2839   -2.2733   -2.0560 H       1  UNL1        0.0000
     35 H          -6.9209   -0.7321   -0.9369 H       1  UNL1        0.0000
     36 H          -7.0288    1.4507    0.6972 H       1  UNL1        0.0000
     37 H          -2.5402    1.9829    1.2187 H       1  UNL1        0.0000
@<TRIPOS>BOND
     1     1     2    1
     2     2     3    2
     3     3     4    1
     4     4     5   ar
     5     5     6   ar
     6     6     7   ar
     7     7     8    1
     8     8     9    1
     9     9    10    2
    10    10    11    1
    11    11    12   ar
    12    12    13   ar
    13    13    14   ar
    14    14    15   ar
    15     2    16    1
    16    16    17   ar
    17    17    18   ar
    18    18    19   ar
    19    19    20   ar
    20    20    21   ar
    21    21    22   ar
    22    22    23   ar
    23    23    24   ar
    24    15     1    1
    25    24    16   ar
    26    15     4   ar
    27    24    20   ar
    28    14     6   ar
    29    11     7   ar
    30     1    25    1
    31     1    26    1
    32     3    27    1
    33     8    28    1
    34     8    29    1
    35     9    30    1
    36    10    31    1
    37    13    32    1
    38    17    33    1
    39    18    34    1
    40    19    35    1
    41    21    36    1
    42    23    37    1
