@<TRIPOS>MOLECULE
*****
 44 50 0 0 0
SMALL
GASTEIGER

@<TRIPOS>ATOM
      1 C           1.8208   -0.8069   -1.4853 C.3     1  UNL1        0.0000
      2 C           3.0186    0.0582   -1.0239 C.2     1  UNL1        0.0000
      3 C           2.6379    0.9275   -0.0513 C.2     1  UNL1        0.0000
      4 C           1.2634    0.7120    0.1792 C.ar    1  UNL1        0.0000
      5 S           0.1578    1.4116    1.2183 S.2     1  UNL1        0.0000
      6 C          -1.1622    0.3911    0.6439 C.ar    1  UNL1        0.0000
      7 C          -0.6095   -0.4409   -0.3472 C.ar    1  UNL1        0.0000
      8 C           0.7442   -0.2707   -0.6153 C.ar    1  UNL1        0.0000
      9 C          -1.4756   -1.3732   -0.9812 C.ar    1  UNL1        0.0000
     10 C          -1.2391   -2.2916   -1.9552 C.ar    1  UNL1        0.0000
     11 O          -2.4220   -2.9373   -2.2072 O.2     1  UNL1        0.0000
     12 C          -3.3691   -2.3954   -1.3734 C.ar    1  UNL1        0.0000
     13 C          -2.8153   -1.4090   -0.5863 C.ar    1  UNL1        0.0000
     14 C          -3.4388   -0.6237    0.3817 C.ar    1  UNL1        0.0000
     15 C          -4.8643   -0.7623    0.7033 C.ar    1  UNL1        0.0000
     16 C          -5.4301    0.0115    1.6415 C.ar    1  UNL1        0.0000
     17 C          -4.6425    0.9947    2.3506 C.ar    1  UNL1        0.0000
     18 C          -5.1625    1.7953    3.3005 C.2     1  UNL1        0.0000
     19 SI         -3.8727    2.9342    4.0011 Si      1  UNL1        0.0000
     20 C          -2.6366    2.1473    2.8351 C.2     1  UNL1        0.0000
     21 C          -3.1890    1.1826    2.0683 C.ar    1  UNL1        0.0000
     22 C          -2.5552    0.3194    1.0207 C.ar    1  UNL1        0.0000
     23 C           4.3643   -0.0959   -1.6069 C.ar    1  UNL1        0.0000
     24 C           4.6106   -1.0438   -2.6133 C.ar    1  UNL1        0.0000
     25 C           5.8847   -1.1961   -3.1717 C.ar    1  UNL1        0.0000
     26 C           6.9390   -0.4022   -2.7336 C.ar    1  UNL1        0.0000
     27 C           6.7191    0.5433   -1.7379 C.ar    1  UNL1        0.0000
     28 C           5.4444    0.6941   -1.1809 C.ar    1  UNL1        0.0000
     29 H           1.5960   -0.6400   -2.5434 H       1  UNL1        0.0000
     30 H           1.9994   -1.8684   -1.2873 H       1  UNL1        0.0000
     31 H           3.2370    1.6575    0.4702 H       1  UNL1        0.0000
     32 H          -0.3921   -2.6137   -2.5420 H       1  UNL1        0.0000
     33 H          -4.3560   -2.8238   -1.4759 H       1  UNL1        0.0000
     34 H          -5.4633   -1.4960    0.1777 H       1  UNL1        0.0000
     35 H          -6.4840   -0.0904    1.8797 H       1  UNL1        0.0000
     36 H          -6.1828    1.8173    3.6492 H       1  UNL1        0.0000
     37 H          -3.5714    2.6478    5.4245 H       1  UNL1        0.0000
     38 H          -4.1317    4.3578    3.6766 H       1  UNL1        0.0000
     39 H          -1.6270    2.5088    2.8651 H       1  UNL1        0.0000
     40 H           3.8187   -1.6866   -2.9878 H       1  UNL1        0.0000
     41 H           6.0502   -1.9371   -3.9497 H       1  UNL1        0.0000
     42 H           7.9288   -0.5197   -3.1666 H       1  UNL1        0.0000
     43 H           7.5386    1.1675   -1.3905 H       1  UNL1        0.0000
     44 H           5.3194    1.4452   -0.4059 H       1  UNL1        0.0000
@<TRIPOS>BOND
     1     1     2    1
     2     2     3    2
     3     3     4    1
     4     4     5   ar
     5     5     6   ar
     6     6     7   ar
     7     7     8   ar
     8     7     9   ar
     9     9    10   ar
    10    10    11   ar
    11    11    12   ar
    12    12    13   ar
    13    13    14   ar
    14    14    15   ar
    15    15    16   ar
    16    16    17   ar
    17    17    18    2
    18    18    19    1
    19    19    20    1
    20    20    21    2
    21    21    22   ar
    22     2    23    1
    23    23    24   ar
    24    24    25   ar
    25    25    26   ar
    26    26    27   ar
    27    27    28   ar
    28     8     1    1
    29    13     9   ar
    30    22    14   ar
    31    28    23   ar
    32     8     4   ar
    33    21    17   ar
    34    22     6   ar
    35     1    29    1
    36     1    30    1
    37     3    31    1
    38    10    32    1
    39    12    33    1
    40    15    34    1
    41    16    35    1
    42    18    36    1
    43    19    37    1
    44    19    38    1
    45    20    39    1
    46    24    40    1
    47    25    41    1
    48    26    42    1
    49    27    43    1
    50    28    44    1
