@<TRIPOS>MOLECULE
*****
 40 46 0 0 0
SMALL
GASTEIGER

@<TRIPOS>ATOM
      1 C           2.9845    0.0016    0.4791 C.3     1  UNL1        0.0000
      2 C           3.5860   -0.9570   -0.5735 C.2     1  UNL1        0.0000
      3 C           2.6077   -1.4842   -1.3545 C.2     1  UNL1        0.0000
      4 C           1.3852   -0.9483   -0.9031 C.ar    1  UNL1        0.0000
      5 S          -0.1939   -1.1550   -1.3942 S.2     1  UNL1        0.0000
      6 C          -0.8152   -0.0486   -0.1683 C.ar    1  UNL1        0.0000
      7 C           0.2989    0.4128    0.5554 C.ar    1  UNL1        0.0000
      8 C           1.5378   -0.0883    0.1481 C.ar    1  UNL1        0.0000
      9 C           0.0774    1.3397    1.6287 C.ar    1  UNL1        0.0000
     10 C           1.0463    1.8807    2.4251 C.ar    1  UNL1        0.0000
     11 S           0.3172    2.9334    3.5700 S.2     1  UNL1        0.0000
     12 C          -1.2618    2.6189    2.9500 C.ar    1  UNL1        0.0000
     13 C          -1.2569    1.7315    1.8904 C.ar    1  UNL1        0.0000
     14 C          -2.4050    1.3042    1.2022 C.ar    1  UNL1        0.0000
     15 C          -3.7544    1.7777    1.5589 C.ar    1  UNL1        0.0000
     16 C          -4.8377    1.3580    0.8895 C.ar    1  UNL1        0.0000
     17 C          -4.7029    0.4258   -0.2034 C.ar    1  UNL1        0.0000
     18 C          -5.7589   -0.0258   -0.9065 C.2     1  UNL1        0.0000
     19 SI         -5.2260   -1.2075   -2.2357 Si      1  UNL1        0.0000
     20 C          -3.4620   -0.9542   -1.6598 C.2     1  UNL1        0.0000
     21 C          -3.3703   -0.0961   -0.6204 C.ar    1  UNL1        0.0000
     22 C          -2.1584    0.3744    0.1293 C.ar    1  UNL1        0.0000
     23 C           4.9483   -1.3143   -0.7900 C.ar    1  UNL1        0.0000
     24 N           5.4055   -2.1446   -1.7112 N.ar    1  UNL1        0.0000
     25 C           6.7786   -2.2570   -1.6338 C.ar    1  UNL1        0.0000
     26 C           7.3791   -1.5095   -0.6484 C.ar    1  UNL1        0.0000
     27 S           6.1901   -0.6340    0.2140 S.2     1  UNL1        0.0000
     28 H           3.1878   -0.3567    1.4929 H       1  UNL1        0.0000
     29 H           3.3656    1.0183    0.3422 H       1  UNL1        0.0000
     30 H           2.7268   -2.1830   -2.1712 H       1  UNL1        0.0000
     31 H           2.1164    1.7449    2.4284 H       1  UNL1        0.0000
     32 H          -2.0914    3.1226    3.4234 H       1  UNL1        0.0000
     33 H          -3.8844    2.4771    2.3745 H       1  UNL1        0.0000
     34 H          -5.8265    1.7133    1.1607 H       1  UNL1        0.0000
     35 H          -6.7966    0.2294   -0.7623 H       1  UNL1        0.0000
     36 H          -5.7078   -2.5895   -1.9973 H       1  UNL1        0.0000
     37 H          -5.4595   -0.6749   -3.5998 H       1  UNL1        0.0000
     38 H          -2.6943   -1.4910   -2.1822 H       1  UNL1        0.0000
     39 H           7.2963   -2.9062   -2.3294 H       1  UNL1        0.0000
     40 H           8.4285   -1.4388   -0.4023 H       1  UNL1        0.0000
@<TRIPOS>BOND
     1     1     2    1
     2     2     3    2
     3     3     4    1
     4     4     5   ar
     5     5     6   ar
     6     6     7   ar
     7     7     8   ar
     8     7     9   ar
     9     9    10   ar
    10    10    11   ar
    11    11    12   ar
    12    12    13   ar
    13    13    14   ar
    14    14    15   ar
    15    15    16   ar
    16    16    17   ar
    17    17    18    2
    18    18    19    1
    19    19    20    1
    20    20    21    2
    21    21    22   ar
    22     2    23    1
    23    23    24   ar
    24    24    25   ar
    25    25    26   ar
    26    26    27   ar
    27     8     1    1
    28    13     9   ar
    29    22    14   ar
    30    27    23   ar
    31     8     4   ar
    32    21    17   ar
    33    22     6   ar
    34     1    28    1
    35     1    29    1
    36     3    30    1
    37    10    31    1
    38    12    32    1
    39    15    33    1
    40    16    34    1
    41    18    35    1
    42    19    36    1
    43    19    37    1
    44    20    38    1
    45    25    39    1
    46    26    40    1
