@<TRIPOS>MOLECULE
*****
 38 44 0 0 0
SMALL
GASTEIGER

@<TRIPOS>ATOM
      1 C          -0.9645   -0.8725   -1.0621 C.3     1  UNL1        0.0004
      2 C          -2.0739   -0.1561   -0.2310 C.2     1  UNL1       -0.0261
      3 C          -1.5069    0.6416    0.7140 C.2     1  UNL1       -0.0431
      4 C          -0.1078    0.5207    0.5869 C.ar    1  UNL1        0.0172
      5 S           1.1813    1.2062    1.4077 S.2     1  UNL1       -0.0879
      6 C           2.3513    0.3458    0.4077 C.ar    1  UNL1        0.0301
      7 C           1.6432   -0.4272   -0.5098 C.ar    1  UNL1        0.0220
      8 C           0.2564   -0.3342   -0.4153 C.ar    1  UNL1       -0.0190
      9 C           2.3598   -1.2335   -1.4509 C.ar    1  UNL1        0.1090
     10 N           1.7459   -1.9908   -2.3489 N.ar    1  UNL1       -0.1901
     11 S           3.0262   -2.6962   -3.1653 S.2     1  UNL1        0.1165
     12 N           4.3204   -2.0168   -2.3517 N.ar    1  UNL1       -0.1901
     13 C           3.8087   -1.2039   -1.4005 C.ar    1  UNL1        0.1082
     14 C           4.5420   -0.4134   -0.4622 C.ar    1  UNL1        0.0114
     15 C           5.9517   -0.3912   -0.4208 C.ar    1  UNL1       -0.0519
     16 C           6.6095    0.4010    0.5186 C.ar    1  UNL1       -0.0611
     17 C           5.8765    1.1731    1.4195 C.ar    1  UNL1       -0.0611
     18 C           4.4782    1.1623    1.3917 C.ar    1  UNL1       -0.0529
     19 C           3.7849    0.3708    0.4526 C.ar    1  UNL1       -0.0014
     20 C          -3.4966   -0.2734   -0.3845 C.ar    1  UNL1        0.0432
     21 S          -4.1062   -1.3305   -1.6314 S.2     1  UNL1       -0.0926
     22 C          -5.7425   -1.0051   -1.2679 C.ar    1  UNL1        0.0038
     23 C          -5.8540   -0.1204   -0.2314 C.ar    1  UNL1        0.0968
     24 N          -7.0592    0.2979    0.2458 N.ar    1  UNL1       -0.2514
     25 C          -6.8931    1.1723    1.2732 C.ar    1  UNL1        0.0464
     26 C          -5.6586    1.5917    1.7789 C.ar    1  UNL1        0.0464
     27 N          -4.4440    1.1878    1.3188 N.ar    1  UNL1       -0.2508
     28 C          -4.5697    0.3048    0.2817 C.ar    1  UNL1        0.1036
     29 H          -1.0210   -0.5854   -2.1165 H       1  UNL1        0.0362
     30 H          -1.0336   -1.9588   -0.9494 H       1  UNL1        0.0362
     31 H          -1.9961    1.2673    1.4452 H       1  UNL1        0.0632
     32 H           6.5323   -0.9903   -1.1196 H       1  UNL1        0.0624
     33 H           7.6964    0.4165    0.5486 H       1  UNL1        0.0618
     34 H           6.3961    1.7891    2.1501 H       1  UNL1        0.0618
     35 H           3.9445    1.7787    2.1114 H       1  UNL1        0.0624
     36 H          -6.5407   -1.4729   -1.8256 H       1  UNL1        0.0715
     37 H          -7.8159    1.5494    1.7052 H       1  UNL1        0.0845
     38 H          -5.6208    2.2960    2.6055 H       1  UNL1        0.0845
@<TRIPOS>BOND
     1     1     2    1
     2     2     3    2
     3     3     4    1
     4     4     5   ar
     5     5     6   ar
     6     6     7   ar
     7     7     8   ar
     8     7     9   ar
     9     9    10   ar
    10    10    11   ar
    11    11    12   ar
    12    12    13   ar
    13    13    14   ar
    14    14    15   ar
    15    15    16   ar
    16    16    17   ar
    17    17    18   ar
    18    18    19   ar
    19     2    20    1
    20    20    21   ar
    21    21    22   ar
    22    22    23   ar
    23    23    24   ar
    24    24    25   ar
    25    25    26   ar
    26    26    27   ar
    27    27    28   ar
    28     8     1    1
    29    13     9   ar
    30    19    14   ar
    31    28    20   ar
    32     8     4   ar
    33    28    23   ar
    34    19     6   ar
    35     1    29    1
    36     1    30    1
    37     3    31    1
    38    15    32    1
    39    16    33    1
    40    17    34    1
    41    18    35    1
    42    22    36    1
    43    25    37    1
    44    26    38    1
