@<TRIPOS>MOLECULE
*****
 36 41 0 0 0
SMALL
GASTEIGER

@<TRIPOS>ATOM
      1 SI         -1.9354   -2.8174    2.2318 Si      1  UNL1        0.0000
      2 C          -2.6193   -1.4209    1.1846 C.2     1  UNL1        0.0000
      3 C          -1.6295   -0.7080    0.6029 C.ar    1  UNL1        0.0000
      4 C          -1.8208    0.4631   -0.3043 C.ar    1  UNL1        0.0000
      5 C          -0.7299    1.0460   -0.8728 C.ar    1  UNL1        0.0000
      6 C           0.5502    0.5203   -0.5461 C.ar    1  UNL1        0.0000
      7 N           1.7282    1.0394   -1.0553 N.ar    1  UNL1        0.0000
      8 C           2.6754    0.2687   -0.4956 C.ar    1  UNL1        0.0000
      9 C           3.9863    0.1734   -0.5150 C.ar    1  UNL1        0.0000
     10 N           5.0158    0.7939   -1.0980 N.ar    1  UNL1        0.0000
     11 C           6.1291    0.1073   -0.6208 C.ar    1  UNL1        0.0000
     12 C           5.7477   -0.9240    0.2480 C.ar    1  UNL1        0.0000
     13 C           4.3444   -0.8347    0.2796 C.ar    1  UNL1        0.0000
     14 O           3.2381   -1.4075    0.8281 O.2     1  UNL1        0.0000
     15 C           2.2035   -0.6853    0.3164 C.ar    1  UNL1        0.0000
     16 C           0.8133   -0.5539    0.3106 C.ar    1  UNL1        0.0000
     17 C          -0.2627   -1.2281    0.9274 C.ar    1  UNL1        0.0000
     18 C          -0.2180   -2.2915    1.7486 C.2     1  UNL1        0.0000
     19 C          -3.0799    1.0548   -0.6211 C.ar    1  UNL1        0.0000
     20 C          -3.7436    1.3349   -1.8006 C.ar    1  UNL1        0.0000
     21 C          -4.9710    1.9584   -1.4672 C.ar    1  UNL1        0.0000
     22 C          -5.0230    2.0527   -0.0950 C.ar    1  UNL1        0.0000
     23 N          -3.8711    1.5066    0.4095 N.ar    1  UNL1        0.0000
     24 H          -2.2162   -2.6081    3.6729 H       1  UNL1        0.0000
     25 H          -2.3054   -4.1502    1.6984 H       1  UNL1        0.0000
     26 H          -3.6830   -1.2775    1.0845 H       1  UNL1        0.0000
     27 H          -0.8169    1.9023   -1.5342 H       1  UNL1        0.0000
     28 H           1.8661    1.8105   -1.6949 H       1  UNL1        0.0000
     29 H           4.9778    1.5786   -1.7358 H       1  UNL1        0.0000
     30 H           7.1162    0.4133   -0.9440 H       1  UNL1        0.0000
     31 H           6.3928   -1.6184    0.7657 H       1  UNL1        0.0000
     32 H           0.6654   -2.8109    2.0864 H       1  UNL1        0.0000
     33 H          -3.3846    1.1053   -2.7955 H       1  UNL1        0.0000
     34 H          -5.7330    2.3016   -2.1549 H       1  UNL1        0.0000
     35 H          -5.7764    2.4607    0.5652 H       1  UNL1        0.0000
     36 H          -3.6308    1.4445    1.3905 H       1  UNL1        0.0000
@<TRIPOS>BOND
     1     1     2    1
     2     2     3    2
     3     3     4   ar
     4     4     5   ar
     5     5     6   ar
     6     6     7   ar
     7     7     8   ar
     8     8     9   ar
     9     9    10   ar
    10    10    11   ar
    11    11    12   ar
    12    12    13   ar
    13    13    14   ar
    14    14    15   ar
    15    15    16   ar
    16    16    17   ar
    17    17    18    2
    18     4    19    1
    19    19    20   ar
    20    20    21   ar
    21    21    22   ar
    22    22    23   ar
    23    18     1    1
    24    23    19   ar
    25    17     3   ar
    26    16     6   ar
    27    15     8   ar
    28    13     9   ar
    29     1    24    1
    30     1    25    1
    31     2    26    1
    32     5    27    1
    33     7    28    1
    34    10    29    1
    35    11    30    1
    36    12    31    1
    37    18    32    1
    38    20    33    1
    39    21    34    1
    40    22    35    1
    41    23    36    1
