@<TRIPOS>MOLECULE
*****
 35 40 0 0 0
SMALL
GASTEIGER

@<TRIPOS>ATOM
      1 C           0.5060   -1.4581   -0.0228 C.3     1  UNL1        0.0004
      2 C           1.6903   -0.4603   -0.1622 C.2     1  UNL1       -0.0276
      3 C           1.2222    0.8076   -0.3032 C.2     1  UNL1       -0.0431
      4 C          -0.1854    0.7415   -0.2698 C.ar    1  UNL1        0.0172
      5 S          -1.3877    1.8896   -0.3834 S.2     1  UNL1       -0.0863
      6 C          -2.6305    0.6657   -0.2165 C.ar    1  UNL1        0.0490
      7 C          -2.0672   -0.6183   -0.0751 C.ar    1  UNL1        0.0134
      8 C          -2.9290   -1.7139    0.0698 C.ar    1  UNL1        0.0369
      9 N          -4.2731   -1.5592    0.0759 N.ar    1  UNL1       -0.2528
     10 C          -4.7967   -0.3287   -0.0599 C.ar    1  UNL1        0.0903
     11 C          -6.1693   -0.1347   -0.0580 C.ar    1  UNL1       -0.0328
     12 C          -6.7168    1.1435   -0.1990 C.ar    1  UNL1       -0.0415
     13 C          -5.8559    2.2187   -0.3414 C.ar    1  UNL1        0.0284
     14 N          -4.5143    2.0984   -0.3514 N.ar    1  UNL1       -0.2523
     15 C          -4.0274    0.8352   -0.2112 C.ar    1  UNL1        0.1034
     16 C          -0.6539   -0.5313   -0.1110 C.ar    1  UNL1       -0.0196
     17 C           3.0859   -0.7545   -0.1531 C.ar    1  UNL1        0.0249
     18 S           3.6263   -2.4205    0.0318 S.2     1  UNL1       -0.0943
     19 C           5.3081   -2.0259   -0.0450 C.ar    1  UNL1        0.0002
     20 C           5.4099   -0.6935   -0.2025 C.ar    1  UNL1        0.0542
     21 N           6.5669    0.0220   -0.3071 N.ar    1  UNL1       -0.3602
     22 C           6.0730    1.3148   -0.4490 C.ar    1  UNL1        0.0028
     23 C           4.6620    1.3349   -0.4257 C.ar    1  UNL1       -0.0356
     24 C           4.2158   -0.0077   -0.2608 C.ar    1  UNL1        0.0141
     25 H           0.5353   -1.9701    0.9439 H       1  UNL1        0.0362
     26 H           0.5026   -2.1811   -0.8443 H       1  UNL1        0.0362
     27 H           1.7829    1.7209   -0.4213 H       1  UNL1        0.0632
     28 H          -2.5676   -2.7309    0.1833 H       1  UNL1        0.0836
     29 H          -6.8245   -0.9943    0.0553 H       1  UNL1        0.0640
     30 H          -7.7913    1.2908   -0.1970 H       1  UNL1        0.0633
     31 H          -6.2337    3.2311   -0.4541 H       1  UNL1        0.0830
     32 H           6.0866   -2.7720    0.0280 H       1  UNL1        0.0714
     33 H           7.5188   -0.3229   -0.2841 H       1  UNL1        0.1653
     34 H           6.7712    2.1351   -0.5575 H       1  UNL1        0.0807
     35 H           4.0608    2.2286   -0.5191 H       1  UNL1        0.0639
@<TRIPOS>BOND
     1     1     2    1
     2     2     3    2
     3     3     4    1
     4     4     5   ar
     5     5     6   ar
     6     6     7   ar
     7     7     8   ar
     8     8     9   ar
     9     9    10   ar
    10    10    11   ar
    11    11    12   ar
    12    12    13   ar
    13    13    14   ar
    14    14    15   ar
    15     7    16   ar
    16     2    17    1
    17    17    18   ar
    18    18    19   ar
    19    19    20   ar
    20    20    21   ar
    21    21    22   ar
    22    22    23   ar
    23    23    24   ar
    24    16     1    1
    25    24    17   ar
    26    16     4   ar
    27    24    20   ar
    28    15     6   ar
    29    15    10   ar
    30     1    25    1
    31     1    26    1
    32     3    27    1
    33     8    28    1
    34    11    29    1
    35    12    30    1
    36    13    31    1
    37    19    32    1
    38    21    33    1
    39    22    34    1
    40    23    35    1
