@<TRIPOS>MOLECULE
*****
 38 43 0 0 0
SMALL
GASTEIGER

@<TRIPOS>ATOM
      1 C           1.5804    0.5094   -0.0366 C.3     1  UNL1        0.0000
      2 C           2.5551   -0.6974   -0.1150 C.2     1  UNL1        0.0000
      3 C           1.8671   -1.8665   -0.1910 C.2     1  UNL1        0.0000
      4 C           0.4944   -1.5411   -0.1697 C.ar    1  UNL1        0.0000
      5 S          -0.9002   -2.4725   -0.2298 S.2     1  UNL1        0.0000
      6 C          -1.9171   -1.0501   -0.1366 C.ar    1  UNL1        0.0000
      7 C          -3.3265   -0.9202   -0.1273 C.ar    1  UNL1        0.0000
      8 SI         -4.5976   -2.2645   -0.2139 Si      1  UNL1        0.0000
      9 C          -5.9445   -0.9266   -0.1257 C.2     1  UNL1        0.0000
     10 C          -5.4465    0.3226   -0.0447 C.2     1  UNL1        0.0000
     11 C          -3.9876    0.3357   -0.0450 C.ar    1  UNL1        0.0000
     12 C          -3.1222    1.4147    0.0247 C.ar    1  UNL1        0.0000
     13 C          -3.4461    2.7490    0.1119 C.ar    1  UNL1        0.0000
     14 N          -2.2619    3.4679    0.1580 N.ar    1  UNL1        0.0000
     15 C          -1.1762    2.6146    0.1016 C.ar    1  UNL1        0.0000
     16 C          -1.7168    1.3662    0.0206 C.ar    1  UNL1        0.0000
     17 C          -1.0867    0.0795   -0.0635 C.ar    1  UNL1        0.0000
     18 C           0.2752   -0.1913   -0.0818 C.ar    1  UNL1        0.0000
     19 C           3.9844   -0.4975   -0.1017 C.2     1  UNL1        0.0000
     20 C           4.6446    0.6804   -0.0271 C.2     1  UNL1        0.0000
     21 C           6.0982    0.6060   -0.0304 C.2     1  UNL1        0.0000
     22 C           6.6118   -0.6336   -0.1077 C.2     1  UNL1        0.0000
     23 SI          5.2549   -1.9231   -0.1899 Si      1  UNL1        0.0000
     24 H           1.7084    1.1750   -0.8960 H       1  UNL1        0.0000
     25 H           1.7088    1.0584    0.9015 H       1  UNL1        0.0000
     26 H           2.2507   -2.8729   -0.2564 H       1  UNL1        0.0000
     27 H          -4.6423   -2.9735   -1.5177 H       1  UNL1        0.0000
     28 H          -4.6403   -3.1367    0.9870 H       1  UNL1        0.0000
     29 H          -6.9868   -1.2046   -0.1429 H       1  UNL1        0.0000
     30 H          -6.0367    1.2253    0.0145 H       1  UNL1        0.0000
     31 H          -4.3956    3.2653    0.1462 H       1  UNL1        0.0000
     32 H          -2.2031    4.4758    0.2236 H       1  UNL1        0.0000
     33 H          -0.1646    2.9925    0.1256 H       1  UNL1        0.0000
     34 H           4.1657    1.6501    0.0335 H       1  UNL1        0.0000
     35 H           6.7004    1.5047    0.0265 H       1  UNL1        0.0000
     36 H           7.6557   -0.9040   -0.1237 H       1  UNL1        0.0000
     37 H           5.2229   -2.6297   -1.4949 H       1  UNL1        0.0000
     38 H           5.2206   -2.7872    1.0165 H       1  UNL1        0.0000
@<TRIPOS>BOND
     1     1     2    1
     2     2     3    2
     3     3     4    1
     4     4     5   ar
     5     5     6   ar
     6     6     7   ar
     7     7     8    1
     8     8     9    1
     9     9    10    2
    10    10    11    1
    11    11    12   ar
    12    12    13   ar
    13    13    14   ar
    14    14    15   ar
    15    15    16   ar
    16    16    17   ar
    17    17    18   ar
    18     2    19    1
    19    19    20    2
    20    20    21    1
    21    21    22    2
    22    22    23    1
    23    18     1    1
    24    23    19    1
    25    18     4   ar
    26    17     6   ar
    27    11     7   ar
    28    16    12   ar
    29     1    24    1
    30     1    25    1
    31     3    26    1
    32     8    27    1
    33     8    28    1
    34     9    29    1
    35    10    30    1
    36    13    31    1
    37    14    32    1
    38    15    33    1
    39    20    34    1
    40    21    35    1
    41    22    36    1
    42    23    37    1
    43    23    38    1
