@<TRIPOS>MOLECULE
*****
 41 45 0 0 0
SMALL
GASTEIGER

@<TRIPOS>ATOM
      1 C           1.5956   -0.8223   -1.6337 C.3     1  UNL1        0.0000
      2 C           1.8754   -0.5096   -3.0894 C.2     1  UNL1        0.0000
      3 C           1.3058    0.6706   -3.3849 C.2     1  UNL1        0.0000
      4 C           0.6385    1.2057   -2.2242 C.2     1  UNL1        0.0000
      5 C           0.7776    0.3689   -1.1815 C.2     1  UNL1        0.0000
      6 C           0.2730    0.4920    0.1617 C.2     1  UNL1        0.0000
      7 SI         -0.8606    1.9264    0.7389 Si      1  UNL1        0.0000
      8 C          -0.8881    1.1290    2.4382 C.2     1  UNL1        0.0000
      9 C          -0.1542    0.0001    2.4587 C.2     1  UNL1        0.0000
     10 C           0.4901   -0.3483    1.1987 C.2     1  UNL1        0.0000
     11 C          -1.6251    1.6269    3.5350 C.ar    1  UNL1        0.0000
     12 S          -1.3406    3.2327    4.1532 S.2     1  UNL1        0.0000
     13 C          -2.5388    3.0891    5.3858 C.ar    1  UNL1        0.0000
     14 C          -3.1316    1.8584    5.3413 C.ar    1  UNL1        0.0000
     15 C          -4.1671    1.2949    6.1521 C.2     1  UNL1        0.0000
     16 C          -4.5224    0.0329    5.8242 C.2     1  UNL1        0.0000
     17 SI         -3.5021   -0.6116    4.3361 Si      1  UNL1        0.0000
     18 C          -2.6003    1.0491    4.3019 C.ar    1  UNL1        0.0000
     19 C           2.6363   -1.3946   -3.9344 C.2     1  UNL1        0.0000
     20 SI          2.9657   -1.0667   -5.7858 Si      1  UNL1        0.0000
     21 C           3.9289   -2.6744   -5.8352 C.2     1  UNL1        0.0000
     22 C           3.9399   -3.2696   -4.6291 C.2     1  UNL1        0.0000
     23 C           3.2230   -2.5612   -3.5788 C.2     1  UNL1        0.0000
     24 H           2.5283   -0.8968   -1.0618 H       1  UNL1        0.0000
     25 H           1.0225   -1.7499   -1.5362 H       1  UNL1        0.0000
     26 H           1.3116    1.1870   -4.3318 H       1  UNL1        0.0000
     27 H           0.1172    2.1493   -2.2484 H       1  UNL1        0.0000
     28 H          -0.1507    3.2324    0.6912 H       1  UNL1        0.0000
     29 H          -2.1786    1.8868    0.0502 H       1  UNL1        0.0000
     30 H          -0.0197   -0.6280    3.3323 H       1  UNL1        0.0000
     31 H           1.1027   -1.2401    1.1440 H       1  UNL1        0.0000
     32 H          -2.7274    3.9131    6.0598 H       1  UNL1        0.0000
     33 H          -4.6244    1.8468    6.9648 H       1  UNL1        0.0000
     34 H          -5.2715   -0.5847    6.2906 H       1  UNL1        0.0000
     35 H          -4.3820   -0.8542    3.1654 H       1  UNL1        0.0000
     36 H          -2.6447   -1.7550    4.7427 H       1  UNL1        0.0000
     37 H           1.7314   -1.1230   -6.6060 H       1  UNL1        0.0000
     38 H           3.8354    0.1166   -6.0074 H       1  UNL1        0.0000
     39 H           4.3976   -3.0294   -6.7392 H       1  UNL1        0.0000
     40 H           4.4417   -4.2073   -4.4245 H       1  UNL1        0.0000
     41 H           3.1919   -2.9823   -2.5810 H       1  UNL1        0.0000
@<TRIPOS>BOND
     1     1     2    1
     2     2     3    2
     3     3     4    1
     4     4     5    2
     5     5     6    1
     6     6     7    1
     7     7     8    1
     8     8     9    2
     9     9    10    1
    10     8    11    1
    11    11    12   ar
    12    12    13   ar
    13    13    14   ar
    14    14    15    1
    15    15    16    2
    16    16    17    1
    17    17    18    1
    18     2    19    1
    19    19    20    1
    20    20    21    1
    21    21    22    2
    22    22    23    1
    23     5     1    1
    24    10     6    2
    25    18    11   ar
    26    23    19    2
    27    18    14   ar
    28     1    24    1
    29     1    25    1
    30     3    26    1
    31     4    27    1
    32     7    28    1
    33     7    29    1
    34     9    30    1
    35    10    31    1
    36    13    32    1
    37    15    33    1
    38    16    34    1
    39    17    35    1
    40    17    36    1
    41    20    37    1
    42    20    38    1
    43    21    39    1
    44    22    40    1
    45    23    41    1
