@<TRIPOS>MOLECULE
*****
 40 44 0 0 0
SMALL
GASTEIGER

@<TRIPOS>ATOM
      1 C           2.5030    0.2398   -0.0497 C.3     1  UNL1        0.0016
      2 C           3.6884   -0.6652   -0.2987 C.2     1  UNL1       -0.0008
      3 C           3.2374   -1.8525   -0.7410 C.2     1  UNL1       -0.0545
      4 C           1.7984   -1.8383   -0.8162 C.2     1  UNL1       -0.0573
      5 C           1.3364   -0.6450   -0.4083 C.2     1  UNL1       -0.0352
      6 C          -0.0413   -0.1897   -0.3419 C.ar    1  UNL1       -0.0124
      7 C          -0.4685    1.1119   -0.7113 C.ar    1  UNL1       -0.0531
      8 C          -1.8297    1.5722   -0.6458 C.ar    1  UNL1       -0.0514
      9 C          -2.9114    0.7805   -0.1943 C.ar    1  UNL1        0.0074
     10 C          -4.2849    1.2392   -0.1289 C.ar    1  UNL1        0.0471
     11 C          -5.4589    0.6635   -0.5837 C.ar    1  UNL1       -0.0364
     12 C          -6.5290    1.5364   -0.2727 C.ar    1  UNL1       -0.0438
     13 C          -5.9895    2.6286    0.3652 C.ar    1  UNL1        0.0022
     14 N          -4.6342    2.4424    0.4439 N.ar    1  UNL1       -0.3606
     15 C          -2.4823   -0.4955    0.1899 C.ar    1  UNL1        0.0091
     16 C          -3.2375   -1.5070    0.7342 C.ar    1  UNL1        0.0101
     17 N          -2.3899   -2.5592    0.9946 N.ar    1  UNL1       -0.3659
     18 C          -1.0992   -2.2294    0.6437 C.ar    1  UNL1        0.0100
     19 C          -1.1215   -0.9565    0.1227 C.ar    1  UNL1        0.0074
     20 C           5.0747   -0.4076   -0.1302 C.ar    1  UNL1        0.1311
     21 C           5.6991    0.7517    0.3180 C.ar    1  UNL1       -0.0162
     22 C           7.0963    0.5277    0.3150 C.ar    1  UNL1       -0.0233
     23 C           7.2666   -0.7559   -0.1337 C.ar    1  UNL1        0.0926
     24 O           6.0680   -1.3256   -0.4029 O.2     1  UNL1       -0.4632
     25 H           2.5560    1.1248   -0.6925 H       1  UNL1        0.0363
     26 H           2.4586    0.5459    1.0010 H       1  UNL1        0.0363
     27 H           3.8397   -2.7086   -1.0096 H       1  UNL1        0.0622
     28 H           1.2124   -2.6722   -1.1722 H       1  UNL1        0.0621
     29 H           0.2690    1.8161   -1.0972 H       1  UNL1        0.0624
     30 H          -2.0304    2.5872   -0.9890 H       1  UNL1        0.0624
     31 H          -5.5318   -0.2874   -1.0962 H       1  UNL1        0.0639
     32 H          -7.5775    1.3832   -0.4924 H       1  UNL1        0.0633
     33 H          -6.4502    3.5196    0.7696 H       1  UNL1        0.0807
     34 H          -3.9820    3.0807    0.8788 H       1  UNL1        0.1653
     35 H          -4.2891   -1.5779    0.9759 H       1  UNL1        0.0813
     36 H          -2.6702   -3.4385    1.4090 H       1  UNL1        0.1648
     37 H          -0.2970   -2.9333    0.8149 H       1  UNL1        0.0813
     38 H           5.1928    1.6598    0.6148 H       1  UNL1        0.0655
     39 H           7.8783    1.2153    0.6037 H       1  UNL1        0.0649
     40 H           8.1306   -1.3813   -0.3093 H       1  UNL1        0.1029
@<TRIPOS>BOND
     1     1     2    1
     2     2     3    2
     3     3     4    1
     4     4     5    2
     5     5     6    1
     6     6     7   ar
     7     7     8   ar
     8     8     9   ar
     9     9    10    1
    10    10    11   ar
    11    11    12   ar
    12    12    13   ar
    13    13    14   ar
    14     9    15   ar
    15    15    16   ar
    16    16    17   ar
    17    17    18   ar
    18    18    19   ar
    19     2    20    1
    20    20    21   ar
    21    21    22   ar
    22    22    23   ar
    23    23    24   ar
    24     5     1    1
    25    19     6   ar
    26    24    20   ar
    27    14    10   ar
    28    19    15   ar
    29     1    25    1
    30     1    26    1
    31     3    27    1
    32     4    28    1
    33     7    29    1
    34     8    30    1
    35    11    31    1
    36    12    32    1
    37    13    33    1
    38    14    34    1
    39    16    35    1
    40    17    36    1
    41    18    37    1
    42    21    38    1
    43    22    39    1
    44    23    40    1
