@<TRIPOS>MOLECULE
*****
 50 56 0 0 0
SMALL
GASTEIGER

@<TRIPOS>ATOM
      1 C           2.6330   -0.1301    0.4548 C.3     1  UNL1        0.0000
      2 C           3.9775    0.2603   -0.1321 C.2     1  UNL1        0.0000
      3 C           3.7638    0.8652   -1.3167 C.2     1  UNL1        0.0000
      4 C           2.3540    0.8997   -1.6132 C.2     1  UNL1        0.0000
      5 C           1.6691    0.3393   -0.6040 C.2     1  UNL1        0.0000
      6 C           0.2370    0.1464   -0.5054 C.ar    1  UNL1        0.0000
      7 C          -0.3780   -0.6236   -1.4354 C.ar    1  UNL1        0.0000
      8 C          -1.8015   -0.9477   -1.4060 C.ar    1  UNL1        0.0000
      9 C          -2.6335   -0.5119   -0.4335 C.ar    1  UNL1        0.0000
     10 C          -4.0347   -0.9185   -0.5084 C.ar    1  UNL1        0.0000
     11 C          -4.5335   -2.2030   -0.1755 C.ar    1  UNL1        0.0000
     12 C          -5.9247   -2.5688   -0.2485 C.ar    1  UNL1        0.0000
     13 C          -6.9584   -1.6934   -0.6590 C.ar    1  UNL1        0.0000
     14 C          -6.4435   -0.4434   -0.9782 C.ar    1  UNL1        0.0000
     15 C          -7.1642    0.6394   -1.4106 C.ar    1  UNL1        0.0000
     16 N          -6.2635    1.6649   -1.6101 N.ar    1  UNL1        0.0000
     17 C          -4.9843    1.2450   -1.3114 C.ar    1  UNL1        0.0000
     18 C          -5.0686   -0.0664   -0.9109 C.ar    1  UNL1        0.0000
     19 C          -2.0595    0.3309    0.6158 C.ar    1  UNL1        0.0000
     20 C          -2.7349    0.8658    1.6539 C.2     1  UNL1        0.0000
     21 SI         -1.6300    1.9317    2.7034 Si      1  UNL1        0.0000
     22 C          -0.2201    1.5209    1.5497 C.2     1  UNL1        0.0000
     23 C          -0.6137    0.6805    0.5696 C.ar    1  UNL1        0.0000
     24 C           5.2672    0.1140    0.4362 C.ar    1  UNL1        0.0000
     25 S           5.5652    0.3988    2.1183 S.2     1  UNL1        0.0000
     26 C           7.2405    0.0337    1.9931 C.ar    1  UNL1        0.0000
     27 C           7.4947   -0.3097    0.7118 C.ar    1  UNL1        0.0000
     28 C           8.6725   -0.7197    0.0443 C.ar    1  UNL1        0.0000
     29 C           8.4492   -0.9956   -1.3091 C.ar    1  UNL1        0.0000
     30 S           6.8018   -0.7914   -1.8861 S.2     1  UNL1        0.0000
     31 C           6.4243   -0.2867   -0.1855 C.ar    1  UNL1        0.0000
     32 H           2.5718   -1.2152    0.5911 H       1  UNL1        0.0000
     33 H           2.4665    0.3694    1.4134 H       1  UNL1        0.0000
     34 H           4.5067    1.2942   -1.9740 H       1  UNL1        0.0000
     35 H           1.9388    1.3171   -2.5184 H       1  UNL1        0.0000
     36 H           0.1854   -1.0681   -2.2521 H       1  UNL1        0.0000
     37 H          -2.1666   -1.5710   -2.2188 H       1  UNL1        0.0000
     38 H          -3.8274   -2.9625    0.1632 H       1  UNL1        0.0000
     39 H          -6.1952   -3.5871    0.0343 H       1  UNL1        0.0000
     40 H          -7.9989   -1.9793   -0.7087 H       1  UNL1        0.0000
     41 H          -8.2189    0.7868   -1.5971 H       1  UNL1        0.0000
     42 H          -6.5046    2.5927   -1.9305 H       1  UNL1        0.0000
     43 H          -4.1444    1.9194   -1.4114 H       1  UNL1        0.0000
     44 H          -3.7841    0.7506    1.8771 H       1  UNL1        0.0000
     45 H          -1.4209    1.3809    4.0637 H       1  UNL1        0.0000
     46 H          -2.0028    3.3661    2.6518 H       1  UNL1        0.0000
     47 H           0.7599    1.9405    1.7048 H       1  UNL1        0.0000
     48 H           7.8993    0.0843    2.8489 H       1  UNL1        0.0000
     49 H           9.6480   -0.8208    0.5056 H       1  UNL1        0.0000
     50 H           9.1842   -1.3251   -2.0312 H       1  UNL1        0.0000
@<TRIPOS>BOND
     1     1     2    1
     2     2     3    2
     3     3     4    1
     4     4     5    2
     5     5     6    1
     6     6     7   ar
     7     7     8   ar
     8     8     9   ar
     9     9    10    1
    10    10    11   ar
    11    11    12   ar
    12    12    13   ar
    13    13    14   ar
    14    14    15   ar
    15    15    16   ar
    16    16    17   ar
    17    17    18   ar
    18     9    19   ar
    19    19    20    2
    20    20    21    1
    21    21    22    1
    22    22    23    2
    23     2    24    1
    24    24    25   ar
    25    25    26   ar
    26    26    27   ar
    27    27    28   ar
    28    28    29   ar
    29    29    30   ar
    30    30    31   ar
    31     5     1    1
    32    23     6   ar
    33    31    24   ar
    34    18    10   ar
    35    23    19   ar
    36    31    27   ar
    37    18    14   ar
    38     1    32    1
    39     1    33    1
    40     3    34    1
    41     4    35    1
    42     7    36    1
    43     8    37    1
    44    11    38    1
    45    12    39    1
    46    13    40    1
    47    15    41    1
    48    16    42    1
    49    17    43    1
    50    20    44    1
    51    21    45    1
    52    21    46    1
    53    22    47    1
    54    26    48    1
    55    28    49    1
    56    29    50    1
