@<TRIPOS>MOLECULE
*****
 48 54 0 0 0
SMALL
GASTEIGER

@<TRIPOS>ATOM
      1 C          -2.0559    0.2365    0.0766 C.3     1  UNL1       -0.0008
      2 C          -3.1511   -0.0802   -0.9295 C.2     1  UNL1       -0.0287
      3 C          -2.5691   -0.3188   -2.1209 C.2     1  UNL1       -0.0569
      4 C          -1.1365   -0.1938   -2.0194 C.2     1  UNL1       -0.0574
      5 C          -0.8104    0.1140   -0.7558 C.2     1  UNL1       -0.0353
      6 C           0.5313    0.3614   -0.2268 C.ar    1  UNL1       -0.0138
      7 C           0.8292    1.6785    0.1375 C.ar    1  UNL1       -0.0531
      8 C           2.0888    2.0092    0.6226 C.ar    1  UNL1       -0.0528
      9 C           3.0892    1.0341    0.7607 C.ar    1  UNL1       -0.0066
     10 C           4.4025    1.4635    1.2409 C.ar    1  UNL1        0.0290
     11 C           5.5299    1.6146    0.4212 C.ar    1  UNL1        0.0375
     12 N           6.7932    2.0103    0.7889 N.ar    1  UNL1       -0.2604
     13 C           7.0744    2.3199    2.0882 C.ar    1  UNL1        0.0557
     14 C           6.0352    2.2225    3.0343 C.ar    1  UNL1        0.1185
     15 N           6.1224    2.4862    4.3483 N.ar    1  UNL1       -0.1892
     16 S           4.6136    2.2063    4.9817 S.2     1  UNL1        0.1165
     17 N           3.7863    1.7461    3.6206 N.ar    1  UNL1       -0.1901
     18 C           4.6606    1.7837    2.5984 C.ar    1  UNL1        0.1105
     19 C           2.8026   -0.3193    0.4140 C.ar    1  UNL1       -0.0095
     20 C           3.7555   -1.3592    0.5584 C.ar    1  UNL1       -0.0534
     21 C           3.4688   -2.6827    0.2237 C.ar    1  UNL1       -0.0611
     22 C           2.2144   -3.0102   -0.2597 C.ar    1  UNL1       -0.0611
     23 C           1.2513   -2.0128   -0.4073 C.ar    1  UNL1       -0.0534
     24 C           1.5122   -0.6578   -0.0856 C.ar    1  UNL1       -0.0099
     25 C          -4.5608   -0.1323   -0.7365 C.ar    1  UNL1        0.0249
     26 S          -5.2500    0.3449    0.8121 S.2     1  UNL1       -0.0943
     27 C          -6.8837    0.0433    0.3307 C.ar    1  UNL1        0.0002
     28 C          -6.8620   -0.3982   -0.9402 C.ar    1  UNL1        0.0542
     29 N          -7.9437   -0.7539   -1.6918 N.ar    1  UNL1       -0.3602
     30 C          -7.3330   -1.1244   -2.8860 C.ar    1  UNL1        0.0028
     31 C          -5.9307   -0.9821   -2.8154 C.ar    1  UNL1       -0.0356
     32 C          -5.6134   -0.4938   -1.5156 C.ar    1  UNL1        0.0141
     33 H          -2.0538   -0.4909    0.8955 H       1  UNL1        0.0362
     34 H          -2.1735    1.2491    0.4769 H       1  UNL1        0.0362
     35 H          -3.0573   -0.5640   -3.0507 H       1  UNL1        0.0621
     36 H          -0.4559   -0.3238   -2.8475 H       1  UNL1        0.0621
     37 H           0.0836    2.4640    0.0311 H       1  UNL1        0.0624
     38 H           2.2899    3.0451    0.8916 H       1  UNL1        0.0624
     39 H           5.4435    1.4023   -0.6459 H       1  UNL1        0.0836
     40 H           8.0834    2.6270    2.3289 H       1  UNL1        0.0852
     41 H           4.7488   -1.1541    0.9523 H       1  UNL1        0.0624
     42 H           4.2248   -3.4530    0.3510 H       1  UNL1        0.0618
     43 H           1.9759   -4.0390   -0.5157 H       1  UNL1        0.0618
     44 H           0.2720   -2.3143   -0.7740 H       1  UNL1        0.0624
     45 H          -7.7246    0.2025    0.9905 H       1  UNL1        0.0714
     46 H          -8.9202   -0.7429   -1.4243 H       1  UNL1        0.1653
     47 H          -7.9497   -1.4679   -3.7067 H       1  UNL1        0.0807
     48 H          -5.2483   -1.2141   -3.6211 H       1  UNL1        0.0639
@<TRIPOS>BOND
     1     1     2    1
     2     2     3    2
     3     3     4    1
     4     4     5    2
     5     5     6    1
     6     6     7   ar
     7     7     8   ar
     8     8     9   ar
     9     9    10    1
    10    10    11   ar
    11    11    12   ar
    12    12    13   ar
    13    13    14   ar
    14    14    15   ar
    15    15    16   ar
    16    16    17   ar
    17    17    18   ar
    18     9    19   ar
    19    19    20   ar
    20    20    21   ar
    21    21    22   ar
    22    22    23   ar
    23    23    24   ar
    24     2    25    1
    25    25    26   ar
    26    26    27   ar
    27    27    28   ar
    28    28    29   ar
    29    29    30   ar
    30    30    31   ar
    31    31    32   ar
    32     5     1    1
    33    24     6   ar
    34    32    25   ar
    35    18    10   ar
    36    24    19   ar
    37    32    28   ar
    38    18    14   ar
    39     1    33    1
    40     1    34    1
    41     3    35    1
    42     4    36    1
    43     7    37    1
    44     8    38    1
    45    11    39    1
    46    13    40    1
    47    20    41    1
    48    21    42    1
    49    22    43    1
    50    23    44    1
    51    27    45    1
    52    29    46    1
    53    30    47    1
    54    31    48    1
