@<TRIPOS>MOLECULE
*****
 44 49 0 0 0
SMALL
GASTEIGER

@<TRIPOS>ATOM
      1 C           3.2797    0.2504    0.4574 C.3     1  UNL1        0.0000
      2 C           4.5109    0.3831   -0.4133 C.2     1  UNL1        0.0000
      3 C           4.1153    0.6045   -1.6819 C.2     1  UNL1        0.0000
      4 C           2.6772    0.6390   -1.7592 C.2     1  UNL1        0.0000
      5 C           2.1621    0.4347   -0.5369 C.2     1  UNL1        0.0000
      6 C           0.7651    0.4032   -0.1633 C.ar    1  UNL1        0.0000
      7 C           0.0443    1.5456   -0.2554 C.ar    1  UNL1        0.0000
      8 C          -1.3628    1.6459    0.1231 C.ar    1  UNL1        0.0000
      9 C          -2.0710    0.6041    0.6157 C.ar    1  UNL1        0.0000
     10 C          -3.4485    0.8270    0.9191 C.ar    1  UNL1        0.0000
     11 S          -3.9214    1.6361    2.3846 S.2     1  UNL1        0.0000
     12 C          -5.6086    1.5007    2.0356 C.ar    1  UNL1        0.0000
     13 C          -5.8057    0.8554    0.8459 C.ar    1  UNL1        0.0000
     14 C          -7.0113    0.5134    0.1561 C.2     1  UNL1        0.0000
     15 C          -6.8296   -0.1355   -1.0154 C.2     1  UNL1        0.0000
     16 SI         -4.9627   -0.3981   -1.3875 Si      1  UNL1        0.0000
     17 C          -4.5808    0.4827    0.2351 C.ar    1  UNL1        0.0000
     18 C          -1.3717   -0.6782    0.7407 C.ar    1  UNL1        0.0000
     19 C          -1.9121   -1.8287    1.1938 C.2     1  UNL1        0.0000
     20 SI         -0.6769   -3.2231    1.1488 Si      1  UNL1        0.0000
     21 C           0.5770   -2.0215    0.4613 C.2     1  UNL1        0.0000
     22 C           0.0566   -0.7827    0.3380 C.ar    1  UNL1        0.0000
     23 C           5.8919    0.3057   -0.0764 C.ar    1  UNL1        0.0000
     24 N           6.9132    0.4332   -0.9065 N.ar    1  UNL1        0.0000
     25 C           8.1114    0.3011   -0.2352 C.ar    1  UNL1        0.0000
     26 C           8.0110    0.0703    1.1163 C.ar    1  UNL1        0.0000
     27 S           6.3631    0.0157    1.5693 S.2     1  UNL1        0.0000
     28 H           3.2542    1.0327    1.2238 H       1  UNL1        0.0000
     29 H           3.2439   -0.7345    0.9328 H       1  UNL1        0.0000
     30 H           4.7627    0.7409   -2.5374 H       1  UNL1        0.0000
     31 H           2.1246    0.8031   -2.6721 H       1  UNL1        0.0000
     32 H           0.5024    2.4665   -0.6092 H       1  UNL1        0.0000
     33 H          -1.8226    2.6221   -0.0134 H       1  UNL1        0.0000
     34 H          -6.3393    1.8995    2.7248 H       1  UNL1        0.0000
     35 H          -7.9896    0.7610    0.5514 H       1  UNL1        0.0000
     36 H          -7.5824   -0.4887   -1.7012 H       1  UNL1        0.0000
     37 H          -4.5702    0.3543   -2.6055 H       1  UNL1        0.0000
     38 H          -4.6417   -1.8478   -1.3905 H       1  UNL1        0.0000
     39 H          -2.9211   -1.9847    1.5421 H       1  UNL1        0.0000
     40 H          -0.3098   -3.7066    2.5015 H       1  UNL1        0.0000
     41 H          -1.0442   -4.2752    0.1708 H       1  UNL1        0.0000
     42 H           1.5743   -2.3455    0.2121 H       1  UNL1        0.0000
     43 H           9.0391    0.3832   -0.7881 H       1  UNL1        0.0000
     44 H           8.8039   -0.0646    1.8373 H       1  UNL1        0.0000
@<TRIPOS>BOND
     1     1     2    1
     2     2     3    2
     3     3     4    1
     4     4     5    2
     5     5     6    1
     6     6     7   ar
     7     7     8   ar
     8     8     9   ar
     9     9    10    1
    10    10    11   ar
    11    11    12   ar
    12    12    13   ar
    13    13    14    1
    14    14    15    2
    15    15    16    1
    16    16    17    1
    17     9    18   ar
    18    18    19    2
    19    19    20    1
    20    20    21    1
    21    21    22    2
    22     2    23    1
    23    23    24   ar
    24    24    25   ar
    25    25    26   ar
    26    26    27   ar
    27     5     1    1
    28    22     6   ar
    29    27    23   ar
    30    17    10   ar
    31    22    18   ar
    32    17    13   ar
    33     1    28    1
    34     1    29    1
    35     3    30    1
    36     4    31    1
    37     7    32    1
    38     8    33    1
    39    12    34    1
    40    14    35    1
    41    15    36    1
    42    16    37    1
    43    16    38    1
    44    19    39    1
    45    20    40    1
    46    20    41    1
    47    21    42    1
    48    25    43    1
    49    26    44    1
