@<TRIPOS>MOLECULE
*****
 45 50 0 0 0
SMALL
GASTEIGER

@<TRIPOS>ATOM
      1 C          -2.7859    0.3687    0.6413 C.3     1  UNL1        0.0016
      2 C          -4.1714    0.7652    0.1794 C.2     1  UNL1       -0.0008
      3 C          -4.0734    1.3657   -1.0217 C.2     1  UNL1       -0.0545
      4 C          -2.6950    1.4189   -1.4410 C.2     1  UNL1       -0.0573
      5 C          -1.9308    0.8465   -0.4991 C.2     1  UNL1       -0.0352
      6 C          -0.4788    0.6882   -0.5215 C.ar    1  UNL1       -0.0138
      7 C           0.2808    1.8003   -0.1412 C.ar    1  UNL1       -0.0531
      8 C           1.6681    1.7289   -0.1185 C.ar    1  UNL1       -0.0523
      9 C           2.3258    0.5448   -0.4802 C.ar    1  UNL1       -0.0015
     10 C           3.7922    0.5433   -0.4299 C.ar    1  UNL1        0.0474
     11 S           4.6786    1.1338   -1.7866 S.2     1  UNL1       -0.0923
     12 C           6.1924    0.8331   -1.0351 C.ar    1  UNL1        0.0038
     13 C           6.0303    0.3019    0.2185 C.ar    1  UNL1        0.0968
     14 N           7.0775   -0.0261    1.0254 N.ar    1  UNL1       -0.2514
     15 C           6.6297   -0.5303    2.2090 C.ar    1  UNL1        0.0464
     16 C           5.2835   -0.6939    2.5600 C.ar    1  UNL1        0.0464
     17 N           4.2221   -0.3734    1.7707 N.ar    1  UNL1       -0.2508
     18 C           4.6413    0.1346    0.5753 C.ar    1  UNL1        0.1039
     19 C           1.5785   -0.6006   -0.8755 C.ar    1  UNL1       -0.0090
     20 C           2.1894   -1.8236   -1.2499 C.ar    1  UNL1       -0.0534
     21 C           1.4443   -2.9332   -1.6492 C.ar    1  UNL1       -0.0611
     22 C           0.0628   -2.8525   -1.6890 C.ar    1  UNL1       -0.0611
     23 C          -0.5692   -1.6646   -1.3227 C.ar    1  UNL1       -0.0534
     24 C           0.1580   -0.5233   -0.9042 C.ar    1  UNL1       -0.0099
     25 C          -5.4241    0.5817    0.8227 C.ar    1  UNL1        0.1311
     26 C          -5.6956   -0.0103    2.0518 C.ar    1  UNL1       -0.0162
     27 C          -7.0936    0.0409    2.2649 C.ar    1  UNL1       -0.0233
     28 C          -7.6162    0.6606    1.1599 C.ar    1  UNL1        0.0926
     29 O          -6.6305    0.9885    0.2912 O.2     1  UNL1       -0.4632
     30 H          -2.7143   -0.7152    0.7773 H       1  UNL1        0.0363
     31 H          -2.5242    0.8772    1.5753 H       1  UNL1        0.0363
     32 H          -4.8898    1.7597   -1.6101 H       1  UNL1        0.0622
     33 H          -2.3587    1.8514   -2.3713 H       1  UNL1        0.0621
     34 H          -0.2070    2.7291    0.1477 H       1  UNL1        0.0624
     35 H           2.2383    2.6030    0.1889 H       1  UNL1        0.0624
     36 H           7.1181    1.0597   -1.5437 H       1  UNL1        0.0715
     37 H           7.4122   -0.8155    2.9069 H       1  UNL1        0.0845
     38 H           5.0199   -1.1063    3.5301 H       1  UNL1        0.0845
     39 H           3.2723   -1.9285   -1.2338 H       1  UNL1        0.0624
     40 H           1.9480   -3.8541   -1.9302 H       1  UNL1        0.0618
     41 H          -0.5276   -3.7082   -2.0049 H       1  UNL1        0.0618
     42 H          -1.6559   -1.6370   -1.3756 H       1  UNL1        0.0624
     43 H          -4.9569   -0.4322    2.7193 H       1  UNL1        0.0655
     44 H          -7.6478   -0.3271    3.1163 H       1  UNL1        0.0649
     45 H          -8.6171    0.9303    0.8536 H       1  UNL1        0.1029
@<TRIPOS>BOND
     1     1     2    1
     2     2     3    2
     3     3     4    1
     4     4     5    2
     5     5     6    1
     6     6     7   ar
     7     7     8   ar
     8     8     9   ar
     9     9    10    1
    10    10    11   ar
    11    11    12   ar
    12    12    13   ar
    13    13    14   ar
    14    14    15   ar
    15    15    16   ar
    16    16    17   ar
    17    17    18   ar
    18     9    19   ar
    19    19    20   ar
    20    20    21   ar
    21    21    22   ar
    22    22    23   ar
    23    23    24   ar
    24     2    25    1
    25    25    26   ar
    26    26    27   ar
    27    27    28   ar
    28    28    29   ar
    29     5     1    1
    30    24     6   ar
    31    29    25   ar
    32    18    10   ar
    33    24    19   ar
    34    18    13   ar
    35     1    30    1
    36     1    31    1
    37     3    32    1
    38     4    33    1
    39     7    34    1
    40     8    35    1
    41    12    36    1
    42    15    37    1
    43    16    38    1
    44    20    39    1
    45    21    40    1
    46    22    41    1
    47    23    42    1
    48    26    43    1
    49    27    44    1
    50    28    45    1
