@<TRIPOS>MOLECULE
*****
 41 46 0 0 0
SMALL
GASTEIGER

@<TRIPOS>ATOM
      1 C           2.7293    0.1811   -0.3693 C.3     1  UNL1        0.0017
      2 C           4.0749   -0.4783   -0.2616 C.2     1  UNL1        0.0011
      3 C           3.9124   -1.7842    0.0000 C.2     1  UNL1       -0.0545
      4 C           2.5054   -2.0815    0.0825 C.2     1  UNL1       -0.0573
      5 C           1.7763   -0.9673   -0.1267 C.2     1  UNL1       -0.0351
      6 C           0.3166   -0.8793   -0.1208 C.ar    1  UNL1       -0.0108
      7 C          -0.5474   -1.9938    0.0956 C.ar    1  UNL1       -0.0530
      8 C          -1.9861   -1.9453    0.1091 C.ar    1  UNL1       -0.0522
      9 C          -2.7355   -0.7672   -0.0916 C.ar    1  UNL1        0.0001
     10 C          -4.1794   -0.6877   -0.0601 C.ar    1  UNL1        0.0308
     11 S          -5.1467   -1.7014   -1.1025 S.2     1  UNL1       -0.0923
     12 C          -6.6516   -1.0611   -0.5255 C.ar    1  UNL1        0.0192
     13 C          -6.3668   -0.1389    0.4107 C.ar    1  UNL1        0.1424
     14 O          -7.2640    0.5966    1.1208 O.2     1  UNL1       -0.4624
     15 C          -6.3921    1.3305    1.9051 C.ar    1  UNL1        0.0932
     16 C          -5.0386    1.0501    1.6760 C.ar    1  UNL1       -0.0150
     17 C          -5.0343    0.0680    0.6685 C.ar    1  UNL1        0.0349
     18 C          -1.8938    0.3252   -0.3089 C.ar    1  UNL1        0.0286
     19 C          -2.2557    1.6206   -0.5762 C.ar    1  UNL1        0.1000
     20 O          -1.1401    2.3867   -0.7328 O.2     1  UNL1       -0.4698
     21 C          -0.0547    1.5706   -0.5810 C.ar    1  UNL1        0.1000
     22 C          -0.4527    0.2805   -0.3256 C.ar    1  UNL1        0.0278
     23 C           5.3179    0.2611   -0.4293 C.ar    1  UNL1        0.1594
     24 N           5.2196    1.5673   -0.6856 N.ar    1  UNL1       -0.2163
     25 C           6.3882    2.1873   -0.8289 C.ar    1  UNL1        0.1200
     26 N           7.5908    1.6256   -0.7387 N.ar    1  UNL1       -0.2241
     27 C           7.5567    0.3209   -0.4801 C.ar    1  UNL1        0.1200
     28 N           6.4626   -0.4170   -0.3150 N.ar    1  UNL1       -0.2163
     29 H           2.5900    0.6054   -1.3695 H       1  UNL1        0.0363
     30 H           2.6205    0.9538    0.3994 H       1  UNL1        0.0363
     31 H           4.6972   -2.5146    0.1312 H       1  UNL1        0.0622
     32 H           2.1441   -3.0779    0.2861 H       1  UNL1        0.0621
     33 H          -0.1081   -2.9769    0.2688 H       1  UNL1        0.0624
     34 H          -2.5156   -2.8808    0.2964 H       1  UNL1        0.0624
     35 H          -7.6182   -1.3824   -0.8844 H       1  UNL1        0.0731
     36 H          -6.8850    2.0138    2.5845 H       1  UNL1        0.1030
     37 H          -4.1994    1.5049    2.1830 H       1  UNL1        0.0655
     38 H          -3.1947    2.1443   -0.6890 H       1  UNL1        0.1036
     39 H           0.8902    2.0793   -0.6940 H       1  UNL1        0.1036
     40 H           6.3576    3.2511   -1.0389 H       1  UNL1        0.1048
     41 H           8.5104   -0.1889   -0.3960 H       1  UNL1        0.1048
@<TRIPOS>BOND
     1     1     2    1
     2     2     3    2
     3     3     4    1
     4     4     5    2
     5     5     6    1
     6     6     7   ar
     7     7     8   ar
     8     8     9   ar
     9     9    10    1
    10    10    11   ar
    11    11    12   ar
    12    12    13   ar
    13    13    14   ar
    14    14    15   ar
    15    15    16   ar
    16    16    17   ar
    17     9    18   ar
    18    18    19   ar
    19    19    20   ar
    20    20    21   ar
    21    21    22   ar
    22     2    23    1
    23    23    24   ar
    24    24    25   ar
    25    25    26   ar
    26    26    27   ar
    27    27    28   ar
    28     5     1    1
    29    22     6   ar
    30    28    23   ar
    31    17    10   ar
    32    22    18   ar
    33    17    13   ar
    34     1    29    1
    35     1    30    1
    36     3    31    1
    37     4    32    1
    38     7    33    1
    39     8    34    1
    40    12    35    1
    41    15    36    1
    42    16    37    1
    43    19    38    1
    44    21    39    1
    45    25    40    1
    46    27    41    1
