@<TRIPOS>MOLECULE
*****
 35 38 0 0 0
SMALL
GASTEIGER

@<TRIPOS>ATOM
      1 C          -2.0966    0.1972    0.1302 C.3     1  UNL1       -0.0003
      2 C          -3.5247   -0.1235   -0.2681 C.2     1  UNL1       -0.0293
      3 C          -3.4798   -1.0252   -1.2657 C.2     1  UNL1       -0.0569
      4 C          -2.1129   -1.3531   -1.5876 C.2     1  UNL1       -0.0569
      5 C          -1.2670   -0.6651   -0.8000 C.2     1  UNL1       -0.0293
      6 C           0.1512   -0.7928   -0.8991 C.ar    1  UNL1        0.0163
      7 C           0.9308   -1.5580   -1.7512 C.ar    1  UNL1       -0.0466
      8 C           2.3304   -1.4020   -1.5282 C.ar    1  UNL1       -0.0464
      9 C           2.6089   -0.5248   -0.5002 C.ar    1  UNL1        0.0199
     10 S           1.1651    0.1090    0.1658 S.2     1  UNL1       -0.0886
     11 C           3.9187   -0.0982    0.0094 C.ar    1  UNL1       -0.0113
     12 C           4.1919   -0.0509    1.3847 C.ar    1  UNL1       -0.0535
     13 C           5.4487    0.3455    1.8500 C.ar    1  UNL1       -0.0612
     14 C           6.4489    0.6970    0.9464 C.ar    1  UNL1       -0.0617
     15 C           6.1949    0.6509   -0.4224 C.ar    1  UNL1       -0.0612
     16 C           4.9386    0.2536   -0.8878 C.ar    1  UNL1       -0.0535
     17 C          -4.7279    0.4122    0.2882 C.ar    1  UNL1        0.0157
     18 C          -4.8337    1.3468    1.3091 C.ar    1  UNL1       -0.0472
     19 C          -6.1787    1.6803    1.6409 C.ar    1  UNL1       -0.0541
     20 C          -7.0800    0.9924    0.8654 C.ar    1  UNL1       -0.0237
     21 S          -6.3053   -0.0418   -0.2477 S.2     1  UNL1       -0.0970
     22 H          -1.8817    1.2604   -0.0237 H       1  UNL1        0.0362
     23 H          -1.9184   -0.0704    1.1776 H       1  UNL1        0.0362
     24 H          -4.3136   -1.4725   -1.7867 H       1  UNL1        0.0621
     25 H          -1.8592   -2.0605   -2.3627 H       1  UNL1        0.0621
     26 H           0.5221   -2.2100   -2.5131 H       1  UNL1        0.0629
     27 H           3.0953   -1.9206   -2.0935 H       1  UNL1        0.0629
     28 H           3.4313   -0.3330    2.1092 H       1  UNL1        0.0624
     29 H           5.6453    0.3769    2.9186 H       1  UNL1        0.0618
     30 H           7.4258    1.0061    1.3089 H       1  UNL1        0.0618
     31 H           6.9731    0.9262   -1.1296 H       1  UNL1        0.0618
     32 H           4.7583    0.2332   -1.9602 H       1  UNL1        0.0624
     33 H          -3.9733    1.7804    1.8049 H       1  UNL1        0.0629
     34 H          -6.4669    2.3879    2.4084 H       1  UNL1        0.0623
     35 H          -8.1594    1.0464    0.8977 H       1  UNL1        0.0693
@<TRIPOS>BOND
     1     1     2    1
     2     2     3    2
     3     3     4    1
     4     4     5    2
     5     5     6    1
     6     6     7   ar
     7     7     8   ar
     8     8     9   ar
     9     9    10   ar
    10     9    11    1
    11    11    12   ar
    12    12    13   ar
    13    13    14   ar
    14    14    15   ar
    15    15    16   ar
    16     2    17    1
    17    17    18   ar
    18    18    19   ar
    19    19    20   ar
    20    20    21   ar
    21     5     1    1
    22    10     6   ar
    23    16    11   ar
    24    21    17   ar
    25     1    22    1
    26     1    23    1
    27     3    24    1
    28     4    25    1
    29     7    26    1
    30     8    27    1
    31    12    28    1
    32    13    29    1
    33    14    30    1
    34    15    31    1
    35    16    32    1
    36    18    33    1
    37    19    34    1
    38    20    35    1
