@<TRIPOS>MOLECULE
*****
 40 46 0 0 0
SMALL
GASTEIGER

@<TRIPOS>ATOM
      1 SI          1.5063    1.3144    3.4857 Si      1  UNL1        0.0000
      2 C           2.2906    1.1143    1.8028 C.2     1  UNL1        0.0000
      3 C           1.3835    0.7300    0.8786 C.ar    1  UNL1        0.0000
      4 C           1.6762    0.4778   -0.5600 C.ar    1  UNL1        0.0000
      5 C           0.6616    0.1053   -1.3868 C.ar    1  UNL1        0.0000
      6 C          -0.6353   -0.0261   -0.8203 C.ar    1  UNL1        0.0000
      7 N          -1.7323   -0.3953   -1.5511 N.ar    1  UNL1        0.0000
      8 C          -2.8025   -0.4219   -0.6895 C.ar    1  UNL1        0.0000
      9 C          -4.1705   -0.6720   -0.6090 C.ar    1  UNL1        0.0000
     10 SI         -5.6869   -1.1653   -1.5405 Si      1  UNL1        0.0000
     11 C          -6.6618   -0.9997    0.1428 C.2     1  UNL1        0.0000
     12 C          -5.8562   -0.6265    1.1634 C.2     1  UNL1        0.0000
     13 C          -4.5285   -0.4639    0.7056 C.ar    1  UNL1        0.0000
     14 N          -3.4441   -0.0965    1.4422 N.ar    1  UNL1        0.0000
     15 C          -2.3736   -0.0712    0.5725 C.ar    1  UNL1        0.0000
     16 C          -0.9925    0.1829    0.4985 C.ar    1  UNL1        0.0000
     17 C          -0.0009    0.5743    1.4302 C.ar    1  UNL1        0.0000
     18 C          -0.1357    0.8285    2.7441 C.2     1  UNL1        0.0000
     19 C           2.9689    0.5880   -1.1465 C.ar    1  UNL1        0.0000
     20 S           3.4839    1.9397   -2.0904 S.2     1  UNL1        0.0000
     21 C           5.0573    1.2847   -2.3471 C.ar    1  UNL1        0.0000
     22 C           5.1208    0.0927   -1.7133 C.ar    1  UNL1        0.0000
     23 C           6.1407   -0.8788   -1.5748 C.ar    1  UNL1        0.0000
     24 C           5.7310   -1.9760   -0.8081 C.ar    1  UNL1        0.0000
     25 S           4.0836   -1.9275   -0.1919 S.2     1  UNL1        0.0000
     26 C           3.9792   -0.3307   -1.0323 C.ar    1  UNL1        0.0000
     27 H           1.9989    0.3181    4.4672 H       1  UNL1        0.0000
     28 H           1.5180    2.7210    3.9551 H       1  UNL1        0.0000
     29 H           3.3431    1.2951    1.6539 H       1  UNL1        0.0000
     30 H           0.8214   -0.0960   -2.4413 H       1  UNL1        0.0000
     31 H          -1.7919   -0.6160   -2.5361 H       1  UNL1        0.0000
     32 H          -5.7127   -2.5740   -2.0099 H       1  UNL1        0.0000
     33 H          -6.1833   -0.1650   -2.5194 H       1  UNL1        0.0000
     34 H          -7.7201   -1.2013    0.1675 H       1  UNL1        0.0000
     35 H          -6.1776   -0.4733    2.1851 H       1  UNL1        0.0000
     36 H          -3.3804    0.1238    2.4269 H       1  UNL1        0.0000
     37 H          -1.0346    0.7782    3.3341 H       1  UNL1        0.0000
     38 H           5.8018    1.8100   -2.9280 H       1  UNL1        0.0000
     39 H           7.1333   -0.8071   -2.0024 H       1  UNL1        0.0000
     40 H           6.3212   -2.8470   -0.5577 H       1  UNL1        0.0000
@<TRIPOS>BOND
     1     1     2    1
     2     2     3    2
     3     3     4   ar
     4     4     5   ar
     5     5     6   ar
     6     6     7   ar
     7     7     8   ar
     8     8     9   ar
     9     9    10    1
    10    10    11    1
    11    11    12    2
    12    12    13    1
    13    13    14   ar
    14    14    15   ar
    15    15    16   ar
    16    16    17   ar
    17    17    18    2
    18     4    19    1
    19    19    20   ar
    20    20    21   ar
    21    21    22   ar
    22    22    23   ar
    23    23    24   ar
    24    24    25   ar
    25    25    26   ar
    26    18     1    1
    27    26    19   ar
    28    17     3   ar
    29    26    22   ar
    30    16     6   ar
    31    15     8   ar
    32    13     9   ar
    33     1    27    1
    34     1    28    1
    35     2    29    1
    36     5    30    1
    37     7    31    1
    38    10    32    1
    39    10    33    1
    40    11    34    1
    41    12    35    1
    42    14    36    1
    43    18    37    1
    44    21    38    1
    45    23    39    1
    46    24    40    1
