@<TRIPOS>MOLECULE
*****
 41 46 0 0 0
SMALL
GASTEIGER

@<TRIPOS>ATOM
      1 C          -0.6050    0.2830   -0.2843 C.3     1  UNL1       -0.0008
      2 C           0.5247   -0.5470    0.3023 C.2     1  UNL1       -0.0287
      3 C          -0.0309   -1.5193    1.0527 C.2     1  UNL1       -0.0569
      4 C          -1.4686   -1.4206    1.0301 C.2     1  UNL1       -0.0574
      5 C          -1.8373   -0.3761    0.2741 C.2     1  UNL1       -0.0353
      6 C          -3.1793    0.0807   -0.0400 C.ar    1  UNL1       -0.0124
      7 C          -3.5845    0.5696   -1.3104 C.ar    1  UNL1       -0.0537
      8 C          -4.9136    1.0284   -1.6231 C.ar    1  UNL1       -0.0606
      9 C          -5.9797    1.0615   -0.6983 C.ar    1  UNL1       -0.0526
     10 C          -5.5614    0.6000    0.5418 C.ar    1  UNL1       -0.0000
     11 C          -6.3406    0.5302    1.6671 C.ar    1  UNL1        0.0094
     12 N          -5.5363    0.0528    2.6785 N.ar    1  UNL1       -0.3659
     13 C          -4.2593   -0.1754    2.2074 C.ar    1  UNL1        0.0100
     14 C          -4.2473    0.1352    0.8677 C.ar    1  UNL1        0.0068
     15 C           1.9335   -0.3808    0.1245 C.ar    1  UNL1        0.0245
     16 S           3.1122   -1.4301    0.8556 S.2     1  UNL1       -0.0862
     17 C           4.4617   -0.6151    0.1735 C.ar    1  UNL1        0.0422
     18 C           5.8096   -1.0373    0.4098 C.ar    1  UNL1        0.0464
     19 C           6.4026   -1.3539    1.6197 C.ar    1  UNL1        0.0430
     20 N           7.7243   -1.7584    1.5647 N.ar    1  UNL1       -0.2551
     21 C           8.1180   -1.7580    0.3111 C.ar    1  UNL1        0.0653
     22 S           6.9503   -1.2881   -0.8510 S.2     1  UNL1       -0.0749
     23 C           4.0402    0.4518   -0.5717 C.ar    1  UNL1        0.0352
     24 S           4.9502    1.7200   -1.4949 S.2     1  UNL1       -0.0955
     25 C           3.3703    2.3566   -1.8995 C.ar    1  UNL1       -0.0231
     26 C           2.2728    1.6707   -1.3709 C.ar    1  UNL1       -0.0459
     27 C           2.6439    0.5459   -0.5799 C.ar    1  UNL1        0.0043
     28 H          -0.5368    1.3245    0.0479 H       1  UNL1        0.0362
     29 H          -0.5838    0.2358   -1.3782 H       1  UNL1        0.0362
     30 H           0.4741   -2.2926    1.6128 H       1  UNL1        0.0621
     31 H          -2.1216   -2.1142    1.5381 H       1  UNL1        0.0621
     32 H          -2.8573    0.5877   -2.1224 H       1  UNL1        0.0624
     33 H          -5.1055    1.3706   -2.6406 H       1  UNL1        0.0618
     34 H          -6.9721    1.4121   -0.9411 H       1  UNL1        0.0624
     35 H          -7.3759    0.7801    1.8543 H       1  UNL1        0.0813
     36 H          -5.8335   -0.0936    3.6343 H       1  UNL1        0.1648
     37 H          -3.4916   -0.5277    2.8816 H       1  UNL1        0.0813
     38 H           5.9140   -1.3018    2.5857 H       1  UNL1        0.0841
     39 H           9.1214   -2.0414    0.0212 H       1  UNL1        0.0907
     40 H           3.3396    3.2382   -2.5256 H       1  UNL1        0.0694
     41 H           1.2586    1.9961   -1.5617 H       1  UNL1        0.0629
@<TRIPOS>BOND
     1     1     2    1
     2     2     3    2
     3     3     4    1
     4     4     5    2
     5     5     6    1
     6     6     7   ar
     7     7     8   ar
     8     8     9   ar
     9     9    10   ar
    10    10    11   ar
    11    11    12   ar
    12    12    13   ar
    13    13    14   ar
    14     2    15    1
    15    15    16   ar
    16    16    17   ar
    17    17    18    1
    18    18    19   ar
    19    19    20   ar
    20    20    21   ar
    21    21    22   ar
    22    17    23   ar
    23    23    24   ar
    24    24    25   ar
    25    25    26   ar
    26    26    27   ar
    27     5     1    1
    28    14     6   ar
    29    27    15   ar
    30    14    10   ar
    31    22    18   ar
    32    27    23   ar
    33     1    28    1
    34     1    29    1
    35     3    30    1
    36     4    31    1
    37     7    32    1
    38     8    33    1
    39     9    34    1
    40    11    35    1
    41    12    36    1
    42    13    37    1
    43    19    38    1
    44    21    39    1
    45    25    40    1
    46    26    41    1
