@<TRIPOS>MOLECULE
*****
 46 51 0 0 0
SMALL
GASTEIGER

@<TRIPOS>ATOM
      1 C          -1.1807    0.4976   -0.1058 C.3     1  UNL1       -0.0012
      2 C          -0.0813    0.8514    0.8735 C.2     1  UNL1       -0.0345
      3 C          -0.6344    1.3735    1.9854 C.2     1  UNL1       -0.0574
      4 C          -2.0672    1.4366    1.8387 C.2     1  UNL1       -0.0574
      5 C          -2.4090    0.9412    0.6396 C.2     1  UNL1       -0.0353
      6 C          -3.7555    0.8491    0.0799 C.ar    1  UNL1       -0.0138
      7 C          -4.3396    2.0425   -0.3707 C.ar    1  UNL1       -0.0537
      8 C          -5.6061    2.0399   -0.9451 C.ar    1  UNL1       -0.0606
      9 C          -6.3056    0.8430   -1.0728 C.ar    1  UNL1       -0.0540
     10 C          -5.7545   -0.3647   -0.6205 C.ar    1  UNL1       -0.0173
     11 C          -6.4792   -1.5610   -0.7508 C.ar    1  UNL1       -0.0540
     12 C          -5.9580   -2.7705   -0.2941 C.ar    1  UNL1       -0.0612
     13 C          -4.7048   -2.7995    0.3031 C.ar    1  UNL1       -0.0611
     14 C          -3.9701   -1.6191    0.4374 C.ar    1  UNL1       -0.0535
     15 C          -4.4662   -0.3774   -0.0266 C.ar    1  UNL1       -0.0105
     16 C           1.3402    0.6225    0.6036 C.ar    1  UNL1       -0.0034
     17 C           1.7693   -0.2723   -0.3766 C.ar    1  UNL1       -0.0509
     18 C           3.1343   -0.4547   -0.6238 C.ar    1  UNL1       -0.0350
     19 C           4.0702    0.2696    0.1094 C.ar    1  UNL1        0.0746
     20 N           3.6764    1.1629    1.0508 N.ar    1  UNL1       -0.2543
     21 C           2.3446    1.3111    1.2758 C.ar    1  UNL1        0.0357
     22 C           5.5152    0.1742   -0.0814 C.ar    1  UNL1        0.0466
     23 C           6.3932    1.2530    0.1271 C.ar    1  UNL1        0.0389
     24 N           7.7612    1.2942   -0.0304 N.ar    1  UNL1       -0.2603
     25 C           8.4429    0.1830   -0.4224 C.ar    1  UNL1        0.0557
     26 C           7.7087   -0.9965   -0.6531 C.ar    1  UNL1        0.1185
     27 N           8.2109   -2.1821   -1.0348 N.ar    1  UNL1       -0.1892
     28 S           6.9255   -3.2215   -1.1509 S.2     1  UNL1        0.1165
     29 N           5.6786   -2.2161   -0.7279 N.ar    1  UNL1       -0.1900
     30 C           6.2069   -1.0026   -0.4762 C.ar    1  UNL1        0.1119
     31 H          -1.2061   -0.5771   -0.3093 H       1  UNL1        0.0362
     32 H          -1.0660    1.0510   -1.0437 H       1  UNL1        0.0362
     33 H          -0.1256    1.7075    2.8773 H       1  UNL1        0.0621
     34 H          -2.7371    1.8328    2.5872 H       1  UNL1        0.0621
     35 H          -3.8012    2.9836   -0.2847 H       1  UNL1        0.0624
     36 H          -6.0446    2.9692   -1.2980 H       1  UNL1        0.0618
     37 H          -7.2939    0.8615   -1.5276 H       1  UNL1        0.0624
     38 H          -7.4663   -1.5588   -1.2084 H       1  UNL1        0.0624
     39 H          -6.5361   -3.6856   -0.3987 H       1  UNL1        0.0618
     40 H          -4.2985   -3.7375    0.6713 H       1  UNL1        0.0618
     41 H          -2.9995   -1.6769    0.9256 H       1  UNL1        0.0624
     42 H           1.0597   -0.8486   -0.9643 H       1  UNL1        0.0625
     43 H           3.4391   -1.1491   -1.4011 H       1  UNL1        0.0639
     44 H           2.1120    2.0486    2.0398 H       1  UNL1        0.0836
     45 H           5.9818    2.2117    0.4517 H       1  UNL1        0.0837
     46 H           9.5165    0.2602   -0.5326 H       1  UNL1        0.0852
@<TRIPOS>BOND
     1     1     2    1
     2     2     3    2
     3     3     4    1
     4     4     5    2
     5     5     6    1
     6     6     7   ar
     7     7     8   ar
     8     8     9   ar
     9     9    10   ar
    10    10    11   ar
    11    11    12   ar
    12    12    13   ar
    13    13    14   ar
    14    14    15   ar
    15     2    16    1
    16    16    17   ar
    17    17    18   ar
    18    18    19   ar
    19    19    20   ar
    20    20    21   ar
    21    19    22    1
    22    22    23   ar
    23    23    24   ar
    24    24    25   ar
    25    25    26   ar
    26    26    27   ar
    27    27    28   ar
    28    28    29   ar
    29    29    30   ar
    30     5     1    1
    31    15     6   ar
    32    21    16   ar
    33    30    22   ar
    34    15    10   ar
    35    30    26   ar
    36     1    31    1
    37     1    32    1
    38     3    33    1
    39     4    34    1
    40     7    35    1
    41     8    36    1
    42     9    37    1
    43    11    38    1
    44    12    39    1
    45    13    40    1
    46    14    41    1
    47    17    42    1
    48    18    43    1
    49    21    44    1
    50    23    45    1
    51    25    46    1
