@<TRIPOS>MOLECULE
*****
 42 46 0 0 0
SMALL
GASTEIGER

@<TRIPOS>ATOM
      1 C          -0.4518   -0.1919   -0.5872 C.3     1  UNL1       -0.0007
      2 C           0.4512    0.9960   -0.8773 C.2     1  UNL1       -0.0278
      3 C          -0.3220    2.0255   -1.2760 C.2     1  UNL1       -0.0569
      4 C          -1.7105    1.6384   -1.2865 C.2     1  UNL1       -0.0574
      5 C          -1.8168    0.3649   -0.8796 C.2     1  UNL1       -0.0353
      6 C          -3.0426   -0.4275   -0.7752 C.ar    1  UNL1       -0.0138
      7 C          -3.1797   -1.5117   -1.6567 C.ar    1  UNL1       -0.0537
      8 C          -4.3242   -2.3021   -1.6386 C.ar    1  UNL1       -0.0606
      9 C          -5.3466   -2.0189   -0.7375 C.ar    1  UNL1       -0.0540
     10 C          -5.2390   -0.9477    0.1619 C.ar    1  UNL1       -0.0173
     11 C          -6.2797   -0.6843    1.0684 C.ar    1  UNL1       -0.0540
     12 C          -6.1903    0.3659    1.9805 C.ar    1  UNL1       -0.0612
     13 C          -5.0558    1.1651    2.0011 C.ar    1  UNL1       -0.0611
     14 C          -4.0134    0.9171    1.1049 C.ar    1  UNL1       -0.0535
     15 C          -4.0767   -0.1342    0.1585 C.ar    1  UNL1       -0.0105
     16 C           1.8680    1.1030   -0.7760 C.ar    1  UNL1        0.0358
     17 C           2.7308    2.1585   -1.0225 C.ar    1  UNL1        0.0430
     18 N           4.0758    1.9220   -0.8222 N.ar    1  UNL1       -0.2452
     19 C           4.2662    0.6814   -0.4160 C.ar    1  UNL1        0.1269
     20 S           2.8184   -0.2434   -0.2627 S.2     1  UNL1       -0.0660
     21 C           5.5737    0.0845   -0.0810 C.ar    1  UNL1        0.0959
     22 C           5.8976   -1.2427   -0.3626 C.ar    1  UNL1       -0.0337
     23 C           7.1609   -1.7181   -0.0144 C.ar    1  UNL1       -0.0582
     24 C           8.0661   -0.8615    0.5988 C.ar    1  UNL1       -0.0436
     25 C           7.6710    0.4426    0.8387 C.ar    1  UNL1        0.0283
     26 N           6.4544    0.9301    0.5152 N.ar    1  UNL1       -0.2529
     27 H          -0.2095   -1.0341   -1.2438 H       1  UNL1        0.0362
     28 H          -0.3706   -0.5001    0.4608 H       1  UNL1        0.0362
     29 H          -0.0009    3.0170   -1.5597 H       1  UNL1        0.0621
     30 H          -2.5198    2.2872   -1.5879 H       1  UNL1        0.0621
     31 H          -2.3981   -1.7371   -2.3792 H       1  UNL1        0.0624
     32 H          -4.4227   -3.1346   -2.3300 H       1  UNL1        0.0618
     33 H          -6.2349   -2.6473   -0.7408 H       1  UNL1        0.0624
     34 H          -7.1747   -1.3030    1.0727 H       1  UNL1        0.0624
     35 H          -7.0040    0.5544    2.6756 H       1  UNL1        0.0618
     36 H          -4.9751    1.9814    2.7141 H       1  UNL1        0.0618
     37 H          -3.1361    1.5577    1.1594 H       1  UNL1        0.0624
     38 H           2.4310    3.1444   -1.3560 H       1  UNL1        0.0841
     39 H           5.1948   -1.9045   -0.8572 H       1  UNL1        0.0640
     40 H           7.4365   -2.7475   -0.2260 H       1  UNL1        0.0619
     41 H           9.0574   -1.1995    0.8794 H       1  UNL1        0.0633
     42 H           8.3418    1.1544    1.3115 H       1  UNL1        0.0830
@<TRIPOS>BOND
     1     1     2    1
     2     2     3    2
     3     3     4    1
     4     4     5    2
     5     5     6    1
     6     6     7   ar
     7     7     8   ar
     8     8     9   ar
     9     9    10   ar
    10    10    11   ar
    11    11    12   ar
    12    12    13   ar
    13    13    14   ar
    14    14    15   ar
    15     2    16    1
    16    16    17   ar
    17    17    18   ar
    18    18    19   ar
    19    19    20   ar
    20    19    21    1
    21    21    22   ar
    22    22    23   ar
    23    23    24   ar
    24    24    25   ar
    25    25    26   ar
    26     5     1    1
    27    15     6   ar
    28    20    16   ar
    29    26    21   ar
    30    15    10   ar
    31     1    27    1
    32     1    28    1
    33     3    29    1
    34     4    30    1
    35     7    31    1
    36     8    32    1
    37     9    33    1
    38    11    34    1
    39    12    35    1
    40    13    36    1
    41    14    37    1
    42    17    38    1
    43    22    39    1
    44    23    40    1
    45    24    41    1
    46    25    42    1
