@<TRIPOS>MOLECULE
*****
 43 48 0 0 0
SMALL
GASTEIGER

@<TRIPOS>ATOM
      1 C          -1.4289    0.0416   -0.0958 C.3     1  UNL1       -0.0012
      2 C          -0.4884   -0.7196    0.8142 C.2     1  UNL1       -0.0345
      3 C          -1.2077   -1.5911    1.5454 C.2     1  UNL1       -0.0574
      4 C          -2.6040   -1.4897    1.2028 C.2     1  UNL1       -0.0574
      5 C          -2.7690   -0.5428    0.2661 C.2     1  UNL1       -0.0353
      6 C          -4.0032   -0.1351   -0.3808 C.ar    1  UNL1       -0.0133
      7 C          -4.1451   -0.0150   -1.7860 C.ar    1  UNL1       -0.0537
      8 C          -5.3549    0.3816   -2.4430 C.ar    1  UNL1       -0.0606
      9 C          -6.5470    0.7102   -1.7659 C.ar    1  UNL1       -0.0535
     10 C          -6.4025    0.6113   -0.3824 C.ar    1  UNL1       -0.0103
     11 C          -7.4294    0.9048    0.4805 C.ar    1  UNL1       -0.0166
     12 S          -6.9377    0.7247    2.1157 S.2     1  UNL1       -0.1039
     13 C          -5.3455    0.2566    1.6628 C.ar    1  UNL1       -0.0160
     14 C          -5.1895    0.2088    0.2958 C.ar    1  UNL1       -0.0035
     15 C           0.9620   -0.4930    0.8435 C.ar    1  UNL1       -0.0034
     16 C           1.5693    0.4796    0.0430 C.ar    1  UNL1       -0.0508
     17 C           2.9524    0.6749    0.0891 C.ar    1  UNL1       -0.0346
     18 C           3.7140   -0.1120    0.9431 C.ar    1  UNL1        0.0782
     19 N           3.1655   -1.0620    1.7311 N.ar    1  UNL1       -0.2538
     20 C           1.8198   -1.2259    1.6631 C.ar    1  UNL1        0.0357
     21 C           5.1639    0.0301    1.0339 C.ar    1  UNL1        0.0457
     22 S           5.9519    0.0595    2.5758 S.2     1  UNL1       -0.0934
     23 C           7.5185    0.2722    1.8932 C.ar    1  UNL1       -0.0094
     24 C           7.4410    0.3139    0.5317 C.ar    1  UNL1        0.0270
     25 S           8.7256    0.5072   -0.7155 S.2     1  UNL1       -0.0961
     26 C           7.4086    0.3740   -1.8721 C.ar    1  UNL1       -0.0231
     27 C           6.1266    0.2049   -1.3357 C.ar    1  UNL1       -0.0458
     28 C           6.1259    0.1774    0.0864 C.ar    1  UNL1        0.0054
     29 H          -1.1845   -0.1380   -1.1482 H       1  UNL1        0.0362
     30 H          -1.4057    1.1161    0.1171 H       1  UNL1        0.0362
     31 H          -0.8469   -2.2856    2.2889 H       1  UNL1        0.0621
     32 H          -3.3737   -2.1102    1.6379 H       1  UNL1        0.0621
     33 H          -3.2931   -0.2567   -2.4223 H       1  UNL1        0.0624
     34 H          -5.3514    0.4283   -3.5327 H       1  UNL1        0.0618
     35 H          -7.4502    1.0092   -2.2811 H       1  UNL1        0.0624
     36 H          -8.4375    1.2227    0.2531 H       1  UNL1        0.0699
     37 H          -4.6242    0.0494    2.4401 H       1  UNL1        0.0700
     38 H           0.9848    1.1064   -0.6247 H       1  UNL1        0.0625
     39 H           3.4119    1.4423   -0.5246 H       1  UNL1        0.0639
     40 H           1.4500   -2.0053    2.3232 H       1  UNL1        0.0836
     41 H           8.4090    0.3517    2.5011 H       1  UNL1        0.0705
     42 H           7.6695    0.4245   -2.9206 H       1  UNL1        0.0694
     43 H           5.2499    0.0980   -1.9626 H       1  UNL1        0.0629
@<TRIPOS>BOND
     1     1     2    1
     2     2     3    2
     3     3     4    1
     4     4     5    2
     5     5     6    1
     6     6     7   ar
     7     7     8   ar
     8     8     9   ar
     9     9    10   ar
    10    10    11   ar
    11    11    12   ar
    12    12    13   ar
    13    13    14   ar
    14     2    15    1
    15    15    16   ar
    16    16    17   ar
    17    17    18   ar
    18    18    19   ar
    19    19    20   ar
    20    18    21    1
    21    21    22   ar
    22    22    23   ar
    23    23    24   ar
    24    24    25   ar
    25    25    26   ar
    26    26    27   ar
    27    27    28   ar
    28     5     1    1
    29    14     6   ar
    30    20    15   ar
    31    28    21   ar
    32    14    10   ar
    33    28    24   ar
    34     1    29    1
    35     1    30    1
    36     3    31    1
    37     4    32    1
    38     7    33    1
    39     8    34    1
    40     9    35    1
    41    11    36    1
    42    13    37    1
    43    16    38    1
    44    17    39    1
    45    20    40    1
    46    23    41    1
    47    26    42    1
    48    27    43    1
