@<TRIPOS>MOLECULE
*****
 31 34 0 0 0
SMALL
GASTEIGER

@<TRIPOS>ATOM
      1 C           0.0567    0.0024    0.0164 C.3     1  UNL1       -0.0008
      2 C           1.1165   -0.1033   -1.0641 C.2     1  UNL1       -0.0286
      3 C           0.4873   -0.2314   -2.2466 C.2     1  UNL1       -0.0569
      4 C          -0.9424   -0.2217   -2.0604 C.2     1  UNL1       -0.0574
      5 C          -1.2376   -0.0872   -0.7562 C.2     1  UNL1       -0.0359
      6 C          -2.5643   -0.0299   -0.1218 C.ar    1  UNL1       -0.0215
      7 C          -2.6919    0.1148    1.2690 C.ar    1  UNL1       -0.0543
      8 C          -3.9491    0.1702    1.8808 C.ar    1  UNL1       -0.0612
      9 C          -5.1045    0.0819    1.1116 C.ar    1  UNL1       -0.0617
     10 C          -5.0025   -0.0617   -0.2681 C.ar    1  UNL1       -0.0612
     11 C          -3.7443   -0.1170   -0.8776 C.ar    1  UNL1       -0.0543
     12 C           2.5331   -0.0772   -0.9076 C.ar    1  UNL1        0.0265
     13 S           3.6681   -0.2077   -2.2476 S.2     1  UNL1       -0.0926
     14 C           5.0732   -0.0943   -1.2471 C.ar    1  UNL1        0.0192
     15 C           4.6543    0.0340    0.0218 C.ar    1  UNL1        0.1424
     16 O           5.4456    0.1533    1.1221 O.2     1  UNL1       -0.4624
     17 C           4.4713    0.2473    2.0979 C.ar    1  UNL1        0.0932
     18 C           3.1607    0.1873    1.6070 C.ar    1  UNL1       -0.0150
     19 C           3.2946    0.0440    0.2117 C.ar    1  UNL1        0.0346
     20 H           0.1520   -0.8251    0.7281 H       1  UNL1        0.0362
     21 H           0.1398    0.9605    0.5414 H       1  UNL1        0.0362
     22 H           0.9351   -0.3307   -3.2245 H       1  UNL1        0.0621
     23 H          -1.6322   -0.3127   -2.8852 H       1  UNL1        0.0621
     24 H          -1.8160    0.1875    1.9080 H       1  UNL1        0.0624
     25 H          -4.0223    0.2826    2.9595 H       1  UNL1        0.0618
     26 H          -6.0814    0.1249    1.5855 H       1  UNL1        0.0618
     27 H          -5.9012   -0.1314   -0.8755 H       1  UNL1        0.0618
     28 H          -3.7099   -0.2298   -1.9577 H       1  UNL1        0.0624
     29 H           6.0851   -0.1259   -1.6229 H       1  UNL1        0.0731
     30 H           4.8653    0.3538    3.1003 H       1  UNL1        0.1030
     31 H           2.2609    0.2424    2.2016 H       1  UNL1        0.0655
@<TRIPOS>BOND
     1     1     2    1
     2     2     3    2
     3     3     4    1
     4     4     5    2
     5     5     6    1
     6     6     7   ar
     7     7     8   ar
     8     8     9   ar
     9     9    10   ar
    10    10    11   ar
    11     2    12    1
    12    12    13   ar
    13    13    14   ar
    14    14    15   ar
    15    15    16   ar
    16    16    17   ar
    17    17    18   ar
    18    18    19   ar
    19     5     1    1
    20    11     6   ar
    21    19    12   ar
    22    19    15   ar
    23     1    20    1
    24     1    21    1
    25     3    22    1
    26     4    23    1
    27     7    24    1
    28     8    25    1
    29     9    26    1
    30    10    27    1
    31    11    28    1
    32    14    29    1
    33    17    30    1
    34    18    31    1
