@<TRIPOS>MOLECULE
*****
 45 49 0 0 0
SMALL
GASTEIGER

@<TRIPOS>ATOM
      1 C           2.9291   -0.1100   -0.3047 C.3     1  UNL1        0.0000
      2 C           1.9500    0.4530    0.7007 C.2     1  UNL1        0.0000
      3 C           2.6333    0.8231    1.7981 C.2     1  UNL1        0.0000
      4 C           4.0382    0.5524    1.6232 C.2     1  UNL1        0.0000
      5 C           4.2550    0.0088    0.4130 C.2     1  UNL1        0.0000
      6 C           5.5302   -0.4196   -0.1763 C.ar    1  UNL1        0.0000
      7 C           6.7474   -0.3001    0.5045 C.ar    1  UNL1        0.0000
      8 C           7.9373   -0.7196   -0.0919 C.ar    1  UNL1        0.0000
      9 C           7.8825   -1.2536   -1.3662 C.ar    1  UNL1        0.0000
     10 N           6.7392   -1.3912   -2.0654 N.ar    1  UNL1        0.0000
     11 C           5.6006   -0.9733   -1.4560 C.ar    1  UNL1        0.0000
     12 C           0.5025    0.5500    0.4523 C.ar    1  UNL1        0.0000
     13 C          -0.3745    1.0713    1.4167 C.ar    1  UNL1        0.0000
     14 C          -1.7510    1.1605    1.1752 C.ar    1  UNL1        0.0000
     15 C          -2.2831    0.7305   -0.0419 C.ar    1  UNL1        0.0000
     16 C          -1.4250    0.2063   -1.0105 C.ar    1  UNL1        0.0000
     17 C          -0.0492    0.1189   -0.7646 C.ar    1  UNL1        0.0000
     18 C          -3.7307    0.8154   -0.2950 C.ar    1  UNL1        0.0000
     19 C          -4.2098    1.9501   -0.8580 C.ar    1  UNL1        0.0000
     20 C          -5.6274    2.1483   -1.1563 C.ar    1  UNL1        0.0000
     21 C          -6.5534    1.2087   -0.8884 C.ar    1  UNL1        0.0000
     22 C          -6.1273   -0.0376   -0.2849 C.ar    1  UNL1        0.0000
     23 C          -6.9383   -1.0623    0.0372 C.2     1  UNL1        0.0000
     24 SI         -5.9569   -2.4668    0.7926 Si      1  UNL1        0.0000
     25 C          -4.4089   -1.4405    0.5803 C.2     1  UNL1        0.0000
     26 C          -4.6908   -0.2464    0.0209 C.ar    1  UNL1        0.0000
     27 H           2.9297    0.4842   -1.2255 H       1  UNL1        0.0000
     28 H           2.6998   -1.1576   -0.5297 H       1  UNL1        0.0000
     29 H           2.2382    1.2619    2.7013 H       1  UNL1        0.0000
     30 H           4.7688    0.7736    2.3858 H       1  UNL1        0.0000
     31 H           6.7935    0.1189    1.5053 H       1  UNL1        0.0000
     32 H           8.8837   -0.6300    0.4295 H       1  UNL1        0.0000
     33 H           8.7813   -1.5939   -1.8720 H       1  UNL1        0.0000
     34 H           4.7133   -1.1095   -2.0679 H       1  UNL1        0.0000
     35 H          -0.0075    1.4183    2.3786 H       1  UNL1        0.0000
     36 H          -2.4043    1.5651    1.9450 H       1  UNL1        0.0000
     37 H          -1.8222   -0.1404   -1.9620 H       1  UNL1        0.0000
     38 H           0.5771   -0.2961   -1.5498 H       1  UNL1        0.0000
     39 H          -3.5463    2.7723   -1.1147 H       1  UNL1        0.0000
     40 H          -5.9142    3.0928   -1.6083 H       1  UNL1        0.0000
     41 H          -7.6018    1.3656   -1.1136 H       1  UNL1        0.0000
     42 H          -8.0061   -1.1235   -0.0964 H       1  UNL1        0.0000
     43 H          -5.9590   -3.6783   -0.0628 H       1  UNL1        0.0000
     44 H          -6.3010   -2.6906    2.2177 H       1  UNL1        0.0000
     45 H          -3.4422   -1.8090    0.8851 H       1  UNL1        0.0000
@<TRIPOS>BOND
     1     1     2    1
     2     2     3    2
     3     3     4    1
     4     4     5    2
     5     5     6    1
     6     6     7   ar
     7     7     8   ar
     8     8     9   ar
     9     9    10   ar
    10    10    11   ar
    11     2    12    1
    12    12    13   ar
    13    13    14   ar
    14    14    15   ar
    15    15    16   ar
    16    16    17   ar
    17    15    18    1
    18    18    19   ar
    19    19    20   ar
    20    20    21   ar
    21    21    22   ar
    22    22    23    2
    23    23    24    1
    24    24    25    1
    25    25    26    2
    26     5     1    1
    27    11     6   ar
    28    17    12   ar
    29    26    18   ar
    30    26    22   ar
    31     1    27    1
    32     1    28    1
    33     3    29    1
    34     4    30    1
    35     7    31    1
    36     8    32    1
    37     9    33    1
    38    11    34    1
    39    13    35    1
    40    14    36    1
    41    16    37    1
    42    17    38    1
    43    19    39    1
    44    20    40    1
    45    21    41    1
    46    23    42    1
    47    24    43    1
    48    24    44    1
    49    25    45    1
