@<TRIPOS>MOLECULE
*****
 45 50 0 0 0
SMALL
GASTEIGER

@<TRIPOS>ATOM
      1 C           2.9359    0.0680    0.2054 C.3     1  UNL1        0.0000
      2 C           1.5924    0.6621    0.5863 C.2     1  UNL1        0.0000
      3 C           1.8038    1.9187    1.0196 C.2     1  UNL1        0.0000
      4 C           3.2080    2.2413    0.9658 C.2     1  UNL1        0.0000
      5 C           3.9033    1.1910    0.4972 C.2     1  UNL1        0.0000
      6 C           5.3514    1.0824    0.2803 C.ar    1  UNL1        0.0000
      7 C           5.9322   -0.0895   -0.2186 C.ar    1  UNL1        0.0000
      8 C           7.3113   -0.1688   -0.4164 C.ar    1  UNL1        0.0000
      9 C           8.0850    0.9350   -0.1081 C.ar    1  UNL1        0.0000
     10 N           7.5779    2.0860    0.3742 N.ar    1  UNL1        0.0000
     11 C           6.2328    2.1294    0.5547 C.ar    1  UNL1        0.0000
     12 C           0.3099    0.0608    0.5230 C.ar    1  UNL1        0.0000
     13 S          -1.2058    0.7843    0.9676 S.2     1  UNL1        0.0000
     14 C          -2.1525   -0.6300    0.5640 C.ar    1  UNL1        0.0000
     15 C          -3.5683   -0.6477    0.7303 C.ar    1  UNL1        0.0000
     16 C          -4.0639   -1.4022    1.7421 C.ar    1  UNL1        0.0000
     17 C          -5.4928   -1.5098    2.0325 C.ar    1  UNL1        0.0000
     18 C          -6.4211   -0.8635    1.3039 C.ar    1  UNL1        0.0000
     19 C          -5.9858   -0.0407    0.1947 C.ar    1  UNL1        0.0000
     20 C          -6.8011    0.6515   -0.6222 C.2     1  UNL1        0.0000
     21 SI         -5.8129    1.5626   -1.9247 Si      1  UNL1        0.0000
     22 C          -4.2550    0.8518   -1.1726 C.2     1  UNL1        0.0000
     23 C          -4.5373    0.0734   -0.1073 C.ar    1  UNL1        0.0000
     24 C          -1.2800   -1.5674    0.1235 C.ar    1  UNL1        0.0000
     25 C          -1.2735   -2.8870   -0.3596 C.ar    1  UNL1        0.0000
     26 C           0.0720   -3.1693   -0.6220 C.ar    1  UNL1        0.0000
     27 O           0.9353   -2.1259   -0.3438 O.2     1  UNL1        0.0000
     28 C           0.0418   -1.1946    0.1006 C.ar    1  UNL1        0.0000
     29 H           3.1557   -0.8122    0.8197 H       1  UNL1        0.0000
     30 H           2.9508   -0.2003   -0.8568 H       1  UNL1        0.0000
     31 H           1.0650    2.6258    1.3683 H       1  UNL1        0.0000
     32 H           3.5904    3.2036    1.2706 H       1  UNL1        0.0000
     33 H           5.3275   -0.9589   -0.4620 H       1  UNL1        0.0000
     34 H           7.7680   -1.0732   -0.8024 H       1  UNL1        0.0000
     35 H           9.1623    0.9222   -0.2447 H       1  UNL1        0.0000
     36 H           5.8827    3.0805    0.9449 H       1  UNL1        0.0000
     37 H          -3.4049   -1.9610    2.4026 H       1  UNL1        0.0000
     38 H          -5.7861   -2.1337    2.8714 H       1  UNL1        0.0000
     39 H          -7.4781   -0.9473    1.5290 H       1  UNL1        0.0000
     40 H          -7.8770    0.7079   -0.5847 H       1  UNL1        0.0000
     41 H          -6.0708    1.0440   -3.2898 H       1  UNL1        0.0000
     42 H          -5.8998    3.0347   -1.7709 H       1  UNL1        0.0000
     43 H          -3.2843    1.0766   -1.5846 H       1  UNL1        0.0000
     44 H          -2.1084   -3.5566   -0.5090 H       1  UNL1        0.0000
     45 H           0.5640   -4.0541   -1.0046 H       1  UNL1        0.0000
@<TRIPOS>BOND
     1     1     2    1
     2     2     3    2
     3     3     4    1
     4     4     5    2
     5     5     6    1
     6     6     7   ar
     7     7     8   ar
     8     8     9   ar
     9     9    10   ar
    10    10    11   ar
    11     2    12    1
    12    12    13   ar
    13    13    14   ar
    14    14    15    1
    15    15    16   ar
    16    16    17   ar
    17    17    18   ar
    18    18    19   ar
    19    19    20    2
    20    20    21    1
    21    21    22    1
    22    22    23    2
    23    14    24   ar
    24    24    25   ar
    25    25    26   ar
    26    26    27   ar
    27    27    28   ar
    28     5     1    1
    29    11     6   ar
    30    28    12   ar
    31    23    15   ar
    32    28    24   ar
    33    23    19   ar
    34     1    29    1
    35     1    30    1
    36     3    31    1
    37     4    32    1
    38     7    33    1
    39     8    34    1
    40     9    35    1
    41    11    36    1
    42    16    37    1
    43    17    38    1
    44    18    39    1
    45    20    40    1
    46    21    41    1
    47    21    42    1
    48    22    43    1
    49    25    44    1
    50    26    45    1
