@<TRIPOS>MOLECULE
*****
 40 45 0 0 0
SMALL
GASTEIGER

@<TRIPOS>ATOM
      1 C          -2.0766   -0.2195    0.2877 C.3     1  UNL1       -0.0007
      2 C          -1.1062    0.5096   -0.6195 C.2     1  UNL1       -0.0282
      3 C          -1.7973    1.0069   -1.6606 C.2     1  UNL1       -0.0569
      4 C          -3.1978    0.6931   -1.5269 C.2     1  UNL1       -0.0574
      5 C          -3.4047   -0.0197   -0.4060 C.2     1  UNL1       -0.0344
      6 C          -4.6718   -0.5476    0.1156 C.ar    1  UNL1       -0.0034
      7 C          -5.8944   -0.3345   -0.5319 C.ar    1  UNL1       -0.0514
      8 C          -7.0768   -0.8529   -0.0022 C.ar    1  UNL1       -0.0430
      9 C          -7.0092   -1.5785    1.1729 C.ar    1  UNL1        0.0276
     10 N          -5.8603   -1.8127    1.8363 N.ar    1  UNL1       -0.2627
     11 C          -4.7290   -1.2944    1.2940 C.ar    1  UNL1        0.0350
     12 C           0.2985    0.6406   -0.4927 C.ar    1  UNL1        0.0306
     13 S           1.2962   -0.6694    0.0220 S.2     1  UNL1       -0.0852
     14 C           2.7553    0.2471   -0.0562 C.ar    1  UNL1        0.0485
     15 C           4.0496   -0.3380    0.2465 C.ar    1  UNL1        0.1062
     16 N           5.1070    0.0309   -0.5487 N.ar    1  UNL1       -0.2521
     17 C           6.3628   -0.4715   -0.3387 C.ar    1  UNL1        0.0304
     18 C           6.7574   -1.3629    0.6523 C.ar    1  UNL1       -0.0153
     19 C           5.7096   -1.7506    1.5082 C.ar    1  UNL1        0.1034
     20 N           5.8327   -2.5895    2.5488 N.ar    1  UNL1       -0.1907
     21 S           4.3289   -2.7082    3.2392 S.2     1  UNL1        0.1165
     22 N           3.4575   -1.7006    2.2540 N.ar    1  UNL1       -0.1886
     23 C           4.3053   -1.2311    1.3193 C.ar    1  UNL1        0.1262
     24 C           2.4175    1.4951   -0.4704 C.ar    1  UNL1        0.0061
     25 C           3.1708    2.6749   -0.7130 C.ar    1  UNL1       -0.0458
     26 C           2.3748    3.7562   -1.1012 C.ar    1  UNL1       -0.0231
     27 S           0.6497    3.4538   -1.2003 S.2     1  UNL1       -0.0955
     28 C           1.0650    1.7582   -0.7052 C.ar    1  UNL1        0.0344
     29 H          -1.8241   -1.2833    0.3565 H       1  UNL1        0.0362
     30 H          -2.0763    0.2305    1.2866 H       1  UNL1        0.0362
     31 H          -1.4012    1.5509   -2.5058 H       1  UNL1        0.0621
     32 H          -3.9320    1.0078   -2.2524 H       1  UNL1        0.0621
     33 H          -5.9507    0.2359   -1.4542 H       1  UNL1        0.0624
     34 H          -8.0273   -0.6917   -0.4982 H       1  UNL1        0.0633
     35 H          -7.9018   -2.0018    1.6241 H       1  UNL1        0.0829
     36 H          -3.8365   -1.5162    1.8726 H       1  UNL1        0.0835
     37 H           7.1024   -0.1043   -1.0507 H       1  UNL1        0.0830
     38 H           7.7715   -1.7193    0.7622 H       1  UNL1        0.0655
     39 H           4.2471    2.7520   -0.6134 H       1  UNL1        0.0629
     40 H           2.7147    4.7549   -1.3393 H       1  UNL1        0.0694
@<TRIPOS>BOND
     1     1     2    1
     2     2     3    2
     3     3     4    1
     4     4     5    2
     5     5     6    1
     6     6     7   ar
     7     7     8   ar
     8     8     9   ar
     9     9    10   ar
    10    10    11   ar
    11     2    12    1
    12    12    13   ar
    13    13    14   ar
    14    14    15    1
    15    15    16   ar
    16    16    17   ar
    17    17    18   ar
    18    18    19   ar
    19    19    20   ar
    20    20    21   ar
    21    21    22   ar
    22    22    23   ar
    23    14    24   ar
    24    24    25   ar
    25    25    26   ar
    26    26    27   ar
    27    27    28   ar
    28     5     1    1
    29    11     6   ar
    30    28    12   ar
    31    23    15   ar
    32    28    24   ar
    33    23    19   ar
    34     1    29    1
    35     1    30    1
    36     3    31    1
    37     4    32    1
    38     7    33    1
    39     8    34    1
    40     9    35    1
    41    11    36    1
    42    17    37    1
    43    18    38    1
    44    25    39    1
    45    26    40    1
