@<TRIPOS>MOLECULE
*****
 41 46 0 0 0
SMALL
GASTEIGER

@<TRIPOS>ATOM
      1 C           2.5073    0.0036   -0.2795 C.3     1  UNL1       -0.0007
      2 C           1.2972    0.8408    0.0895 C.2     1  UNL1       -0.0286
      3 C           1.7418    2.0191    0.5644 C.2     1  UNL1       -0.0569
      4 C           3.1830    2.0582    0.5505 C.2     1  UNL1       -0.0574
      5 C           3.6695    0.9031    0.0660 C.2     1  UNL1       -0.0344
      6 C           5.0735    0.5165   -0.1219 C.ar    1  UNL1       -0.0034
      7 C           5.4273   -0.7337   -0.6430 C.ar    1  UNL1       -0.0514
      8 C           6.7692   -1.0777   -0.8121 C.ar    1  UNL1       -0.0430
      9 C           7.7353   -0.1559   -0.4532 C.ar    1  UNL1        0.0276
     10 N           7.4499    1.0595    0.0522 N.ar    1  UNL1       -0.2627
     11 C           6.1351    1.3624    0.2038 C.ar    1  UNL1        0.0350
     12 C          -0.0805    0.4918   -0.0252 C.ar    1  UNL1        0.0271
     13 S          -1.3945    1.5497    0.4358 S.2     1  UNL1       -0.0836
     14 C          -2.6588    0.4326    0.0039 C.ar    1  UNL1        0.0699
     15 C          -4.0669    0.7062    0.1453 C.ar    1  UNL1        0.0387
     16 S          -4.6502    2.2389    0.7872 S.2     1  UNL1       -0.0933
     17 C          -6.3182    1.8203    0.6497 C.ar    1  UNL1        0.0002
     18 C          -6.3869    0.5772    0.1403 C.ar    1  UNL1        0.0542
     19 N          -7.5324   -0.1168   -0.1212 N.ar    1  UNL1       -0.3602
     20 C          -7.0188   -1.3067   -0.6208 C.ar    1  UNL1        0.0028
     21 C          -5.6081   -1.2894   -0.6429 C.ar    1  UNL1       -0.0355
     22 C          -5.1762   -0.0283   -0.1336 C.ar    1  UNL1        0.0150
     23 C          -2.0456   -0.6766   -0.4638 C.ar    1  UNL1        0.1506
     24 O          -2.6279   -1.8212   -0.9211 O.2     1  UNL1       -0.4617
     25 C          -1.5081   -2.5574   -1.2462 C.ar    1  UNL1        0.0932
     26 C          -0.3011   -1.8977   -1.0007 C.ar    1  UNL1       -0.0150
     27 C          -0.6690   -0.6436   -0.4787 C.ar    1  UNL1        0.0353
     28 H           2.5305   -0.9184    0.3119 H       1  UNL1        0.0362
     29 H           2.4961   -0.2363   -1.3484 H       1  UNL1        0.0362
     30 H           1.1517    2.8520    0.9188 H       1  UNL1        0.0621
     31 H           3.7390    2.9182    0.8922 H       1  UNL1        0.0621
     32 H           4.6722   -1.4613   -0.9264 H       1  UNL1        0.0624
     33 H           7.0514   -2.0440   -1.2150 H       1  UNL1        0.0633
     34 H           8.7928   -0.3765   -0.5657 H       1  UNL1        0.0829
     35 H           5.9681    2.3538    0.6147 H       1  UNL1        0.0835
     36 H          -7.1150    2.4897    0.9413 H       1  UNL1        0.0714
     37 H          -8.4893    0.1821    0.0214 H       1  UNL1        0.1653
     38 H          -7.7014   -2.0886   -0.9280 H       1  UNL1        0.0807
     39 H          -4.9971   -2.1092   -0.9925 H       1  UNL1        0.0639
     40 H          -1.7298   -3.5391   -1.6442 H       1  UNL1        0.1030
     41 H           0.6850   -2.2972   -1.1850 H       1  UNL1        0.0655
@<TRIPOS>BOND
     1     1     2    1
     2     2     3    2
     3     3     4    1
     4     4     5    2
     5     5     6    1
     6     6     7   ar
     7     7     8   ar
     8     8     9   ar
     9     9    10   ar
    10    10    11   ar
    11     2    12    1
    12    12    13   ar
    13    13    14   ar
    14    14    15    1
    15    15    16   ar
    16    16    17   ar
    17    17    18   ar
    18    18    19   ar
    19    19    20   ar
    20    20    21   ar
    21    21    22   ar
    22    14    23   ar
    23    23    24   ar
    24    24    25   ar
    25    25    26   ar
    26    26    27   ar
    27     5     1    1
    28    11     6   ar
    29    27    12   ar
    30    22    15   ar
    31    27    23   ar
    32    22    18   ar
    33     1    28    1
    34     1    29    1
    35     3    30    1
    36     4    31    1
    37     7    32    1
    38     8    33    1
    39     9    34    1
    40    11    35    1
    41    17    36    1
    42    19    37    1
    43    20    38    1
    44    21    39    1
    45    25    40    1
    46    26    41    1
