@<TRIPOS>MOLECULE
*****
 42 47 0 0 0
SMALL
GASTEIGER

@<TRIPOS>ATOM
      1 C          -0.8774   -0.3765   -0.5099 C.3     1  UNL1       -0.0012
      2 C          -2.1493    0.4344   -0.5552 C.2     1  UNL1       -0.0353
      3 C          -1.8458    1.7347   -0.4201 C.2     1  UNL1       -0.0574
      4 C          -0.4235    1.8874   -0.2496 C.2     1  UNL1       -0.0573
      5 C           0.1798    0.6845   -0.2889 C.2     1  UNL1       -0.0323
      6 C           1.6120    0.4146   -0.1474 C.ar    1  UNL1        0.0248
      7 C           2.5754    1.3866    0.1540 C.ar    1  UNL1        0.0379
      8 N           3.9294    1.2291    0.3059 N.ar    1  UNL1       -0.2516
      9 C           4.5201    0.0036    0.1506 C.ar    1  UNL1        0.1056
     10 C           5.9673   -0.0448    0.3372 C.ar    1  UNL1        0.0397
     11 C           6.7403    0.7810    1.1389 C.ar    1  UNL1       -0.0454
     12 C           8.1316    0.4815    1.0748 C.ar    1  UNL1       -0.0541
     13 C           8.3900   -0.5545    0.2084 C.ar    1  UNL1       -0.0237
     14 S           6.9648   -1.1464   -0.5230 S.2     1  UNL1       -0.0951
     15 C           3.6805   -1.1051   -0.1323 C.ar    1  UNL1        0.1268
     16 N           4.0243   -2.3991   -0.2736 N.ar    1  UNL1       -0.1886
     17 S           2.6451   -3.2443   -0.5997 S.2     1  UNL1        0.1166
     18 N           1.5289   -2.0277   -0.5629 N.ar    1  UNL1       -0.1901
     19 C           2.1815   -0.8820   -0.2890 C.ar    1  UNL1        0.1108
     20 C          -3.4530   -0.1719   -0.7664 C.ar    1  UNL1       -0.0124
     21 C          -3.6870   -1.2988   -1.5993 C.ar    1  UNL1       -0.0537
     22 C          -4.9757   -1.9063   -1.8112 C.ar    1  UNL1       -0.0606
     23 C          -6.1705   -1.4636   -1.2044 C.ar    1  UNL1       -0.0526
     24 C          -5.9213   -0.3776   -0.3773 C.ar    1  UNL1       -0.0000
     25 C          -6.8587    0.2700    0.3847 C.ar    1  UNL1        0.0094
     26 N          -6.1937    1.2564    1.0787 N.ar    1  UNL1       -0.3659
     27 C          -4.8492    1.2375    0.7678 C.ar    1  UNL1        0.0100
     28 C          -4.6486    0.2418   -0.1598 C.ar    1  UNL1        0.0068
     29 H          -0.7163   -0.8975   -1.4594 H       1  UNL1        0.0362
     30 H          -0.9084   -1.0896    0.3211 H       1  UNL1        0.0362
     31 H          -2.5347    2.5651   -0.4526 H       1  UNL1        0.0621
     32 H           0.0345    2.8554   -0.1148 H       1  UNL1        0.0621
     33 H           2.2708    2.4227    0.3018 H       1  UNL1        0.0836
     34 H           6.3150    1.5692    1.7499 H       1  UNL1        0.0629
     35 H           8.9007    1.0036    1.6305 H       1  UNL1        0.0623
     36 H           9.3488   -0.9888   -0.0391 H       1  UNL1        0.0693
     37 H          -2.8459   -1.7379   -2.1367 H       1  UNL1        0.0624
     38 H          -5.0271   -2.7632   -2.4838 H       1  UNL1        0.0618
     39 H          -7.1316   -1.9295   -1.3650 H       1  UNL1        0.0624
     40 H          -7.9222    0.1230    0.5132 H       1  UNL1        0.0813
     41 H          -6.6249    1.8919    1.7370 H       1  UNL1        0.1648
     42 H          -4.1759    1.9311    1.2506 H       1  UNL1        0.0813
@<TRIPOS>BOND
     1     1     2    1
     2     2     3    2
     3     3     4    1
     4     4     5    2
     5     5     6    1
     6     6     7   ar
     7     7     8   ar
     8     8     9   ar
     9     9    10    1
    10    10    11   ar
    11    11    12   ar
    12    12    13   ar
    13    13    14   ar
    14     9    15   ar
    15    15    16   ar
    16    16    17   ar
    17    17    18   ar
    18    18    19   ar
    19     2    20    1
    20    20    21   ar
    21    21    22   ar
    22    22    23   ar
    23    23    24   ar
    24    24    25   ar
    25    25    26   ar
    26    26    27   ar
    27    27    28   ar
    28     5     1    1
    29    19     6   ar
    30    28    20   ar
    31    14    10   ar
    32    19    15   ar
    33    28    24   ar
    34     1    29    1
    35     1    30    1
    36     3    31    1
    37     4    32    1
    38     7    33    1
    39    11    34    1
    40    12    35    1
    41    13    36    1
    42    21    37    1
    43    22    38    1
    44    23    39    1
    45    25    40    1
    46    26    41    1
    47    27    42    1
