@<TRIPOS>MOLECULE
*****
 46 53 0 0 0
SMALL
GASTEIGER

@<TRIPOS>ATOM
      1 SI          1.0879   -3.7953   -0.8926 Si      1  UNL1        0.0000
      2 C           2.0878   -2.3508   -0.2847 C.2     1  UNL1        0.0000
      3 C           1.3131   -1.2658   -0.0711 C.ar    1  UNL1        0.0000
      4 C           1.8332    0.0644    0.3109 C.ar    1  UNL1        0.0000
      5 C           0.9731    1.1048    0.4180 C.ar    1  UNL1        0.0000
      6 C          -0.4025    0.8397    0.1887 C.ar    1  UNL1        0.0000
      7 N          -1.3460    1.8333    0.2572 N.ar    1  UNL1        0.0000
      8 C          -2.5720    1.2635    0.0727 C.ar    1  UNL1        0.0000
      9 C          -3.9715    1.9271    0.0740 C.ar    1  UNL1        0.0000
     10 S          -4.3607    3.5618    0.2557 S.2     1  UNL1        0.0000
     11 C          -6.0511    3.2168    0.1161 C.ar    1  UNL1        0.0000
     12 C          -6.3088    1.8671   -0.0590 C.ar    1  UNL1        0.0000
     13 C          -5.0966    1.1629   -0.0805 C.ar    1  UNL1        0.0000
     14 C          -4.8716   -0.2356   -0.2085 C.ar    1  UNL1        0.0000
     15 C          -5.8132   -1.2173   -0.3116 C.ar    1  UNL1        0.0000
     16 O          -5.1686   -2.4299   -0.3432 O.2     1  UNL1        0.0000
     17 C          -3.8147   -2.1856   -0.2622 C.ar    1  UNL1        0.0000
     18 C          -3.6041   -0.8374   -0.2137 C.ar    1  UNL1        0.0000
     19 C          -2.3905   -0.0929   -0.1083 C.ar    1  UNL1        0.0000
     20 C          -1.0202   -0.3741   -0.1199 C.ar    1  UNL1        0.0000
     21 C          -0.1523   -1.4943   -0.3281 C.ar    1  UNL1        0.0000
     22 C          -0.4341   -2.7167   -0.8141 C.2     1  UNL1        0.0000
     23 C           3.2439    0.3472    0.5822 C.ar    1  UNL1        0.0000
     24 C           3.8241    0.3173    1.8727 C.ar    1  UNL1        0.0000
     25 C           5.2071    0.5879    2.1287 C.ar    1  UNL1        0.0000
     26 C           6.1473    0.9121    1.1255 C.ar    1  UNL1        0.0000
     27 C           5.5693    0.9352   -0.1446 C.ar    1  UNL1        0.0000
     28 C           6.2886    1.2221   -1.2782 C.ar    1  UNL1        0.0000
     29 S           5.2923    1.1662   -2.6783 S.2     1  UNL1        0.0000
     30 C           3.8951    0.7577   -1.7619 C.ar    1  UNL1        0.0000
     31 C           4.1781    0.6654   -0.4185 C.ar    1  UNL1        0.0000
     32 H           1.4305   -4.1840   -2.2816 H       1  UNL1        0.0000
     33 H           1.0378   -4.9088    0.0852 H       1  UNL1        0.0000
     34 H           3.1600   -2.4181   -0.1876 H       1  UNL1        0.0000
     35 H           1.3090    2.1021    0.6857 H       1  UNL1        0.0000
     36 H          -1.1772    2.8128    0.4425 H       1  UNL1        0.0000
     37 H          -6.7657    4.0263    0.1753 H       1  UNL1        0.0000
     38 H          -7.3037    1.4533   -0.1579 H       1  UNL1        0.0000
     39 H          -6.8919   -1.2595   -0.3491 H       1  UNL1        0.0000
     40 H          -3.2084   -3.0741   -0.2231 H       1  UNL1        0.0000
     41 H          -1.3712   -3.0956   -1.1709 H       1  UNL1        0.0000
     42 H           3.1876    0.0706    2.7235 H       1  UNL1        0.0000
     43 H           5.5525    0.5373    3.1621 H       1  UNL1        0.0000
     44 H           7.1884    1.1116    1.3420 H       1  UNL1        0.0000
     45 H           7.3388    1.4605   -1.3743 H       1  UNL1        0.0000
     46 H           2.9513    0.6083   -2.2688 H       1  UNL1        0.0000
@<TRIPOS>BOND
     1     1     2    1
     2     2     3    2
     3     3     4   ar
     4     4     5   ar
     5     5     6   ar
     6     6     7   ar
     7     7     8   ar
     8     8     9   ar
     9     9    10   ar
    10    10    11   ar
    11    11    12   ar
    12    12    13   ar
    13    13    14   ar
    14    14    15   ar
    15    15    16   ar
    16    16    17   ar
    17    17    18   ar
    18    18    19   ar
    19    19    20   ar
    20    20    21   ar
    21    21    22    2
    22     4    23    1
    23    23    24   ar
    24    24    25   ar
    25    25    26   ar
    26    26    27   ar
    27    27    28   ar
    28    28    29   ar
    29    29    30   ar
    30    30    31   ar
    31    22     1    1
    32    31    23   ar
    33    21     3   ar
    34    31    27   ar
    35    20     6   ar
    36    19     8   ar
    37    13     9   ar
    38    18    14   ar
    39     1    32    1
    40     1    33    1
    41     2    34    1
    42     5    35    1
    43     7    36    1
    44    11    37    1
    45    12    38    1
    46    15    39    1
    47    17    40    1
    48    22    41    1
    49    24    42    1
    50    25    43    1
    51    26    44    1
    52    28    45    1
    53    30    46    1
