@<TRIPOS>MOLECULE
*****
 40 45 0 0 0
SMALL
GASTEIGER

@<TRIPOS>ATOM
      1 C          -0.9837   -0.2052    0.0025 C.3     1  UNL1       -0.0012
      2 C          -2.1377   -1.1014    0.3795 C.2     1  UNL1       -0.0353
      3 C          -1.6271   -2.2037    0.9611 C.2     1  UNL1       -0.0574
      4 C          -0.1896   -2.1315    1.0136 C.2     1  UNL1       -0.0573
      5 C           0.2300   -0.9795    0.4644 C.2     1  UNL1       -0.0323
      6 C           1.6126   -0.5195    0.3206 C.ar    1  UNL1        0.0248
      7 C           2.7353   -1.2369    0.7514 C.ar    1  UNL1        0.0379
      8 N           4.0572   -0.8859    0.6585 N.ar    1  UNL1       -0.2500
      9 C           4.4422    0.3021    0.0866 C.ar    1  UNL1        0.1239
     10 C           5.8664    0.6358    0.0093 C.ar    1  UNL1        0.1285
     11 N           6.3851    1.7370   -0.5051 N.ar    1  UNL1       -0.2457
     12 C           7.7613    1.7216   -0.4121 C.ar    1  UNL1        0.0355
     13 C           8.3023    0.6031    0.1765 C.ar    1  UNL1       -0.0042
     14 S           7.0498   -0.4692    0.6312 S.2     1  UNL1       -0.0741
     15 C           3.4204    1.1544   -0.4055 C.ar    1  UNL1        0.1283
     16 N           3.5456    2.3550   -1.0004 N.ar    1  UNL1       -0.1885
     17 S           2.0305    2.8926   -1.3653 S.2     1  UNL1        0.1166
     18 N           1.1205    1.6384   -0.7931 N.ar    1  UNL1       -0.1901
     19 C           1.9643    0.7222   -0.2803 C.ar    1  UNL1        0.1109
     20 C          -3.5622   -0.8241    0.1542 C.ar    1  UNL1       -0.0133
     21 C          -4.5909   -1.7328    0.5486 C.ar    1  UNL1       -0.0537
     22 C          -5.9965   -1.5322    0.3632 C.ar    1  UNL1       -0.0606
     23 C          -6.5464   -0.3928   -0.2422 C.ar    1  UNL1       -0.0535
     24 C          -5.5605    0.5085   -0.6354 C.ar    1  UNL1       -0.0103
     25 C          -5.8945    1.6907   -1.2492 C.ar    1  UNL1       -0.0166
     26 S          -4.5010    2.6079   -1.6258 S.2     1  UNL1       -0.1039
     27 C          -3.4528    1.4136   -0.9629 C.ar    1  UNL1       -0.0160
     28 C          -4.1264    0.3243   -0.4564 C.ar    1  UNL1       -0.0035
     29 H          -1.0491    0.7484    0.5371 H       1  UNL1        0.0362
     30 H          -0.9491   -0.0619   -1.0826 H       1  UNL1        0.0362
     31 H          -2.1663   -3.0529    1.3521 H       1  UNL1        0.0621
     32 H           0.4093   -2.9196    1.4442 H       1  UNL1        0.0621
     33 H           2.6072   -2.2077    1.2305 H       1  UNL1        0.0836
     34 H           8.3265    2.5629   -0.7947 H       1  UNL1        0.0835
     35 H           9.3420    0.3715    0.3559 H       1  UNL1        0.0709
     36 H          -4.3145   -2.6681    1.0351 H       1  UNL1        0.0624
     37 H          -6.6742   -2.3113    0.7136 H       1  UNL1        0.0618
     38 H          -7.6113   -0.2558   -0.3752 H       1  UNL1        0.0624
     39 H          -6.8754    2.0712   -1.4993 H       1  UNL1        0.0699
     40 H          -2.3995    1.6305   -1.0083 H       1  UNL1        0.0700
@<TRIPOS>BOND
     1     1     2    1
     2     2     3    2
     3     3     4    1
     4     4     5    2
     5     5     6    1
     6     6     7   ar
     7     7     8   ar
     8     8     9   ar
     9     9    10    1
    10    10    11   ar
    11    11    12   ar
    12    12    13   ar
    13    13    14   ar
    14     9    15   ar
    15    15    16   ar
    16    16    17   ar
    17    17    18   ar
    18    18    19   ar
    19     2    20    1
    20    20    21   ar
    21    21    22   ar
    22    22    23   ar
    23    23    24   ar
    24    24    25   ar
    25    25    26   ar
    26    26    27   ar
    27    27    28   ar
    28     5     1    1
    29    19     6   ar
    30    28    20   ar
    31    14    10   ar
    32    19    15   ar
    33    28    24   ar
    34     1    29    1
    35     1    30    1
    36     3    31    1
    37     4    32    1
    38     7    33    1
    39    12    34    1
    40    13    35    1
    41    21    36    1
    42    22    37    1
    43    23    38    1
    44    25    39    1
    45    27    40    1
