@<TRIPOS>MOLECULE
*****
 35 38 0 0 0
SMALL
GASTEIGER

@<TRIPOS>ATOM
      1 C          -1.7725    0.3732    0.3866 C.3     1  UNL1        0.0000
      2 C          -2.9478   -0.3456   -0.2343 C.2     1  UNL1        0.0000
      3 C          -2.4793   -1.2883   -1.0682 C.2     1  UNL1        0.0000
      4 C          -1.0381   -1.2801   -1.0648 C.2     1  UNL1        0.0000
      5 C          -0.5759   -0.3313   -0.2291 C.2     1  UNL1        0.0000
      6 C           0.8060   -0.0672    0.0057 C.ar    1  UNL1        0.0000
      7 C           1.3653    0.8692    0.8575 C.ar    1  UNL1        0.0000
      8 N           2.7430    0.9272    0.9012 N.ar    1  UNL1        0.0000
      9 C           3.2811    0.0386    0.0868 C.ar    1  UNL1        0.0000
     10 S           2.0988   -0.9023   -0.7650 S.2     1  UNL1        0.0000
     11 C           4.6709   -0.1648   -0.1074 C.2     1  UNL1        0.0000
     12 SI          5.9295    0.8709    0.8347 Si      1  UNL1        0.0000
     13 C           7.2769   -0.1024   -0.0649 C.2     1  UNL1        0.0000
     14 C           6.7408   -1.0132   -0.8966 C.2     1  UNL1        0.0000
     15 C           5.2847   -1.0494   -0.9216 C.2     1  UNL1        0.0000
     16 C          -4.3282   -0.0579    0.0423 C.2     1  UNL1        0.0000
     17 SI         -4.9336    1.6594    0.6143 Si      1  UNL1        0.0000
     18 C          -6.6636    0.9441    0.7009 C.2     1  UNL1        0.0000
     19 C          -6.6717   -0.3527    0.3453 C.2     1  UNL1        0.0000
     20 C          -5.3761   -0.9093   -0.0149 C.2     1  UNL1        0.0000
     21 H          -1.7612    1.4359    0.1214 H       1  UNL1        0.0000
     22 H          -1.7703    0.2598    1.4763 H       1  UNL1        0.0000
     23 H          -3.0658   -1.9699   -1.6663 H       1  UNL1        0.0000
     24 H          -0.4617   -1.9670   -1.6669 H       1  UNL1        0.0000
     25 H           0.8018    1.5504    1.4840 H       1  UNL1        0.0000
     26 H           5.9782    2.2997    0.4302 H       1  UNL1        0.0000
     27 H           5.9888    0.5925    2.2930 H       1  UNL1        0.0000
     28 H           8.3233    0.0926    0.1080 H       1  UNL1        0.0000
     29 H           7.3256   -1.6839   -1.5146 H       1  UNL1        0.0000
     30 H           4.7836   -1.7588   -1.5690 H       1  UNL1        0.0000
     31 H          -4.7909    2.6902   -0.4437 H       1  UNL1        0.0000
     32 H          -4.3886    2.0205    1.9473 H       1  UNL1        0.0000
     33 H          -7.5113    1.5391    1.0013 H       1  UNL1        0.0000
     34 H          -7.5644   -0.9660    0.3226 H       1  UNL1        0.0000
     35 H          -5.2975   -1.9531   -0.2948 H       1  UNL1        0.0000
@<TRIPOS>BOND
     1     1     2    1
     2     2     3    2
     3     3     4    1
     4     4     5    2
     5     5     6    1
     6     6     7   ar
     7     7     8   ar
     8     8     9   ar
     9     9    10   ar
    10     9    11    1
    11    11    12    1
    12    12    13    1
    13    13    14    2
    14    14    15    1
    15     2    16    1
    16    16    17    1
    17    17    18    1
    18    18    19    2
    19    19    20    1
    20     5     1    1
    21    10     6   ar
    22    15    11    2
    23    20    16    2
    24     1    21    1
    25     1    22    1
    26     3    23    1
    27     4    24    1
    28     7    25    1
    29    12    26    1
    30    12    27    1
    31    13    28    1
    32    14    29    1
    33    15    30    1
    34    17    31    1
    35    17    32    1
    36    18    33    1
    37    19    34    1
    38    20    35    1
