@<TRIPOS>MOLECULE
*****
 45 51 0 0 0
SMALL
GASTEIGER

@<TRIPOS>ATOM
      1 C           2.2816   -0.0668   -0.0441 C.3     1  UNL1        0.0003
      2 C           3.6562    0.5712   -0.0617 C.2     1  UNL1       -0.0337
      3 C           3.5097    1.8694   -0.3812 C.2     1  UNL1       -0.0573
      4 C           2.1176    2.1815   -0.5894 C.2     1  UNL1       -0.0559
      5 C           1.3717    1.0812   -0.4027 C.2     1  UNL1       -0.0155
      6 C          -0.0677    0.8784   -0.4941 C.ar    1  UNL1        0.0954
      7 N          -0.5517   -0.3787   -0.2398 N.ar    1  UNL1       -0.2524
      8 C          -1.8932   -0.6535   -0.3042 C.ar    1  UNL1        0.0382
      9 C          -2.9393    0.2243   -0.6060 C.ar    1  UNL1        0.0290
     10 C          -4.3380   -0.1559   -0.6535 C.ar    1  UNL1       -0.0061
     11 C          -5.1445   -0.0599   -1.8204 C.ar    1  UNL1       -0.0533
     12 C          -6.5187   -0.4584   -1.8943 C.ar    1  UNL1       -0.0606
     13 C          -7.2405   -0.9957   -0.8100 C.ar    1  UNL1       -0.0535
     14 C          -6.4578   -1.0816    0.3402 C.ar    1  UNL1       -0.0103
     15 C          -6.9549   -1.5621    1.5264 C.ar    1  UNL1       -0.0166
     16 S          -5.7631   -1.5229    2.7618 S.2     1  UNL1       -0.1039
     17 C          -4.5816   -0.8550    1.7043 C.ar    1  UNL1       -0.0160
     18 C          -5.0709   -0.6835    0.4286 C.ar    1  UNL1       -0.0031
     19 C          -2.4852    1.5385   -0.8878 C.ar    1  UNL1        0.1111
     20 N          -3.2551    2.5917   -1.2196 N.ar    1  UNL1       -0.1900
     21 S          -2.2472    3.8851   -1.4319 S.2     1  UNL1        0.1166
     22 N          -0.7817    3.1838   -1.1252 N.ar    1  UNL1       -0.1886
     23 C          -1.0097    1.8894   -0.8315 C.ar    1  UNL1        0.1260
     24 C           4.8758   -0.1928    0.2359 C.ar    1  UNL1        0.0066
     25 C           4.8416   -1.5729    0.5656 C.ar    1  UNL1       -0.0521
     26 C           5.9844   -2.3554    0.8604 C.ar    1  UNL1       -0.0590
     27 C           7.2848   -1.8369    0.8557 C.ar    1  UNL1       -0.0335
     28 C           7.4049   -0.4655    0.5357 C.ar    1  UNL1        0.1005
     29 N           8.5630    0.2100    0.4797 N.ar    1  UNL1       -0.1908
     30 S           8.1775    1.7671    0.0678 S.2     1  UNL1        0.1165
     31 N           6.5316    1.6567   -0.0581 N.ar    1  UNL1       -0.1902
     32 C           6.1858    0.3850    0.2175 C.ar    1  UNL1        0.1072
     33 H           2.2120   -0.8678   -0.7890 H       1  UNL1        0.0362
     34 H           2.0435   -0.4570    0.9522 H       1  UNL1        0.0362
     35 H           4.2825    2.6163   -0.4820 H       1  UNL1        0.0621
     36 H           1.7788    3.1716   -0.8549 H       1  UNL1        0.0621
     37 H          -2.1200   -1.6998   -0.0909 H       1  UNL1        0.0836
     38 H          -4.6970    0.3443   -2.7309 H       1  UNL1        0.0624
     39 H          -7.0341   -0.3348   -2.8477 H       1  UNL1        0.0618
     40 H          -8.2795   -1.2883   -0.8850 H       1  UNL1        0.0624
     41 H          -7.9480   -1.9288    1.7473 H       1  UNL1        0.0699
     42 H          -3.6016   -0.6285    2.1003 H       1  UNL1        0.0700
     43 H           3.8813   -2.0892    0.6014 H       1  UNL1        0.0624
     44 H           5.8442   -3.4096    1.1019 H       1  UNL1        0.0618
     45 H           8.1524   -2.4444    1.0827 H       1  UNL1        0.0640
@<TRIPOS>BOND
     1     1     2    1
     2     2     3    2
     3     3     4    1
     4     4     5    2
     5     5     6    1
     6     6     7   ar
     7     7     8   ar
     8     8     9   ar
     9     9    10    1
    10    10    11   ar
    11    11    12   ar
    12    12    13   ar
    13    13    14   ar
    14    14    15   ar
    15    15    16   ar
    16    16    17   ar
    17    17    18   ar
    18     9    19   ar
    19    19    20   ar
    20    20    21   ar
    21    21    22   ar
    22    22    23   ar
    23     2    24    1
    24    24    25   ar
    25    25    26   ar
    26    26    27   ar
    27    27    28   ar
    28    28    29   ar
    29    29    30   ar
    30    30    31   ar
    31    31    32   ar
    32     5     1    1
    33    23     6   ar
    34    32    24   ar
    35    18    10   ar
    36    23    19   ar
    37    32    28   ar
    38    18    14   ar
    39     1    33    1
    40     1    34    1
    41     3    35    1
    42     4    36    1
    43     8    37    1
    44    11    38    1
    45    12    39    1
    46    13    40    1
    47    15    41    1
    48    17    42    1
    49    25    43    1
    50    26    44    1
    51    27    45    1
