@<TRIPOS>MOLECULE
*****
 44 50 0 0 0
SMALL
GASTEIGER

@<TRIPOS>ATOM
      1 C           2.3632   -0.5843   -0.0519 C.3     1  UNL1        0.0000
      2 C           3.5083   -1.5817    0.0670 C.2     1  UNL1        0.0000
      3 C           3.0105   -2.7242    0.5815 C.2     1  UNL1        0.0000
      4 C           1.6000   -2.5871    0.8383 C.2     1  UNL1        0.0000
      5 C           1.1897   -1.3584    0.4871 C.2     1  UNL1        0.0000
      6 C          -0.1648   -0.8449    0.6331 C.ar    1  UNL1        0.0000
      7 N          -1.0885   -1.6238    1.2877 N.ar    1  UNL1        0.0000
      8 C          -2.3742   -1.1925    1.4864 C.ar    1  UNL1        0.0000
      9 C          -2.9380    0.0145    1.0675 C.ar    1  UNL1        0.0000
     10 C          -4.3151    0.3975    1.3134 C.ar    1  UNL1        0.0000
     11 S          -4.8747    0.5532    2.9476 S.2     1  UNL1        0.0000
     12 C          -6.4791    0.9713    2.4623 C.ar    1  UNL1        0.0000
     13 C          -6.5809    0.9926    1.0984 C.ar    1  UNL1        0.0000
     14 C          -7.7035    1.2617    0.2534 C.2     1  UNL1        0.0000
     15 C          -7.4542    1.1638   -1.0722 C.2     1  UNL1        0.0000
     16 SI         -5.6231    0.7071   -1.4044 Si      1  UNL1        0.0000
     17 C          -5.3502    0.6706    0.4647 C.ar    1  UNL1        0.0000
     18 C          -2.0357    0.8511    0.3667 C.ar    1  UNL1        0.0000
     19 N          -2.3029    2.0577   -0.1672 N.ar    1  UNL1        0.0000
     20 S          -0.8981    2.6146   -0.8395 S.2     1  UNL1        0.0000
     21 N           0.1166    1.3466   -0.5211 N.ar    1  UNL1        0.0000
     22 C          -0.5971    0.4207    0.1458 C.ar    1  UNL1        0.0000
     23 C           4.8841   -1.3827   -0.2840 C.ar    1  UNL1        0.0000
     24 S           6.0767   -2.6397   -0.1373 S.2     1  UNL1        0.0000
     25 C           7.3524   -1.6552   -0.7095 C.ar    1  UNL1        0.0000
     26 C           6.9102   -0.3972   -1.0157 C.ar    1  UNL1        0.0000
     27 N           7.7332    0.5797   -1.4943 N.ar    1  UNL1        0.0000
     28 C           7.0397    1.7310   -1.7093 C.ar    1  UNL1        0.0000
     29 C           5.6704    1.9000   -1.4758 C.ar    1  UNL1        0.0000
     30 N           4.8297    0.9402   -1.0036 N.ar    1  UNL1        0.0000
     31 C           5.4958   -0.2339   -0.7737 C.ar    1  UNL1        0.0000
     32 H           2.2133   -0.3072   -1.1028 H       1  UNL1        0.0000
     33 H           2.5642    0.3032    0.5570 H       1  UNL1        0.0000
     34 H           3.5420   -3.6386    0.8054 H       1  UNL1        0.0000
     35 H           0.9878   -3.3678    1.2661 H       1  UNL1        0.0000
     36 H          -2.9832   -1.9121    2.0359 H       1  UNL1        0.0000
     37 H          -7.2383    1.1604    3.2063 H       1  UNL1        0.0000
     38 H          -8.6765    1.5191    0.6554 H       1  UNL1        0.0000
     39 H          -8.1413    1.3210   -1.8875 H       1  UNL1        0.0000
     40 H          -4.9400    1.8108   -2.1208 H       1  UNL1        0.0000
     41 H          -5.5194   -0.6324   -2.0413 H       1  UNL1        0.0000
     42 H           8.3572   -2.0414   -0.7946 H       1  UNL1        0.0000
     43 H           7.6339    2.5586   -2.0914 H       1  UNL1        0.0000
     44 H           5.2001    2.8578   -1.6721 H       1  UNL1        0.0000
@<TRIPOS>BOND
     1     1     2    1
     2     2     3    2
     3     3     4    1
     4     4     5    2
     5     5     6    1
     6     6     7   ar
     7     7     8   ar
     8     8     9   ar
     9     9    10    1
    10    10    11   ar
    11    11    12   ar
    12    12    13   ar
    13    13    14    1
    14    14    15    2
    15    15    16    1
    16    16    17    1
    17     9    18   ar
    18    18    19   ar
    19    19    20   ar
    20    20    21   ar
    21    21    22   ar
    22     2    23    1
    23    23    24   ar
    24    24    25   ar
    25    25    26   ar
    26    26    27   ar
    27    27    28   ar
    28    28    29   ar
    29    29    30   ar
    30    30    31   ar
    31     5     1    1
    32    22     6   ar
    33    31    23   ar
    34    17    10   ar
    35    22    18   ar
    36    31    26   ar
    37    17    13   ar
    38     1    32    1
    39     1    33    1
    40     3    34    1
    41     4    35    1
    42     8    36    1
    43    12    37    1
    44    14    38    1
    45    15    39    1
    46    16    40    1
    47    16    41    1
    48    25    42    1
    49    28    43    1
    50    29    44    1
