@<TRIPOS>MOLECULE
*****
 36 40 0 0 0
SMALL
GASTEIGER

@<TRIPOS>ATOM
      1 C          -1.3292    0.5647    0.0236 C.3     1  UNL1        0.0016
      2 C           0.0311   -0.1127   -0.0589 C.2     1  UNL1       -0.0197
      3 C          -0.1672   -1.4431   -0.1132 C.2     1  UNL1       -0.0560
      4 C          -1.5774   -1.7390   -0.0740 C.2     1  UNL1       -0.0558
      5 C          -2.2818   -0.5980    0.0053 C.2     1  UNL1       -0.0155
      6 C          -3.7324   -0.4967    0.0645 C.ar    1  UNL1        0.0954
      7 N          -4.4759   -1.6533    0.0388 N.ar    1  UNL1       -0.2530
      8 C          -5.8435   -1.6291    0.0912 C.ar    1  UNL1        0.0304
      9 C          -6.6623   -0.5098    0.1738 C.ar    1  UNL1       -0.0153
     10 C          -5.9496    0.7027    0.2033 C.ar    1  UNL1        0.1034
     11 N          -6.5054    1.9223    0.2806 N.ar    1  UNL1       -0.1907
     12 S          -5.2548    3.0112    0.2842 S.2     1  UNL1        0.1165
     13 N          -3.9545    1.9882    0.1880 N.ar    1  UNL1       -0.1886
     14 C          -4.4409    0.7329    0.1480 C.ar    1  UNL1        0.1254
     15 C           1.3042    0.5137   -0.0776 C.ar    1  UNL1        0.0433
     16 C           1.6740    1.8445   -0.0285 C.ar    1  UNL1       -0.0360
     17 C           3.0877    1.9080   -0.0792 C.ar    1  UNL1       -0.0328
     18 C           3.5698    0.6140   -0.1590 C.ar    1  UNL1        0.0845
     19 N           2.4675   -0.2143   -0.1564 N.ar    1  UNL1       -0.3520
     20 C           4.9231    0.0914   -0.2353 C.ar    1  UNL1        0.1791
     21 N           5.0425   -1.2370   -0.3030 N.ar    1  UNL1       -0.2145
     22 C           6.3048   -1.6510   -0.3707 C.ar    1  UNL1        0.1201
     23 N           7.3879   -0.8758   -0.3751 N.ar    1  UNL1       -0.2241
     24 C           7.1230    0.4280   -0.3031 C.ar    1  UNL1        0.1201
     25 N           5.9162    0.9791   -0.2310 N.ar    1  UNL1       -0.2145
     26 H          -1.4765    1.2210   -0.8410 H       1  UNL1        0.0363
     27 H          -1.4092    1.1376    0.9537 H       1  UNL1        0.0363
     28 H           0.5723   -2.2257   -0.1771 H       1  UNL1        0.0621
     29 H          -1.9843   -2.7396   -0.1052 H       1  UNL1        0.0621
     30 H          -6.2962   -2.6204    0.0623 H       1  UNL1        0.0830
     31 H          -7.7406   -0.5628    0.2118 H       1  UNL1        0.0655
     32 H           0.9964    2.6864    0.0373 H       1  UNL1        0.0639
     33 H           3.6977    2.8025   -0.0599 H       1  UNL1        0.0640
     34 H           2.5420   -1.2207   -0.2072 H       1  UNL1        0.1660
     35 H           6.4693   -2.7218   -0.4278 H       1  UNL1        0.1048
     36 H           7.9722    1.1028   -0.3034 H       1  UNL1        0.1048
@<TRIPOS>BOND
     1     1     2    1
     2     2     3    2
     3     3     4    1
     4     4     5    2
     5     5     6    1
     6     6     7   ar
     7     7     8   ar
     8     8     9   ar
     9     9    10   ar
    10    10    11   ar
    11    11    12   ar
    12    12    13   ar
    13    13    14   ar
    14     2    15    1
    15    15    16   ar
    16    16    17   ar
    17    17    18   ar
    18    18    19   ar
    19    18    20    1
    20    20    21   ar
    21    21    22   ar
    22    22    23   ar
    23    23    24   ar
    24    24    25   ar
    25     5     1    1
    26    14     6   ar
    27    19    15   ar
    28    25    20   ar
    29    14    10   ar
    30     1    26    1
    31     1    27    1
    32     3    28    1
    33     4    29    1
    34     8    30    1
    35     9    31    1
    36    16    32    1
    37    17    33    1
    38    19    34    1
    39    22    35    1
    40    24    36    1
