@<TRIPOS>MOLECULE
*****
 42 48 0 0 0
SMALL
GASTEIGER

@<TRIPOS>ATOM
      1 C           2.2370   -0.1778   -0.3417 C.3     1  UNL1        0.0003
      2 C           1.1544    0.4456   -1.2004 C.2     1  UNL1       -0.0323
      3 C           1.7360    1.0313   -2.2638 C.2     1  UNL1       -0.0573
      4 C           3.1638    0.8563   -2.2041 C.2     1  UNL1       -0.0559
      5 C           3.4916    0.1596   -1.1034 C.2     1  UNL1       -0.0155
      6 C           4.8421   -0.2124   -0.7063 C.ar    1  UNL1        0.0954
      7 N           5.8926    0.1681   -1.5081 N.ar    1  UNL1       -0.2530
      8 C           7.1870   -0.1484   -1.1945 C.ar    1  UNL1        0.0304
      9 C           7.6343   -0.8597   -0.0881 C.ar    1  UNL1       -0.0153
     10 C           6.5966   -1.2733    0.7669 C.ar    1  UNL1        0.1034
     11 N           6.7639   -1.9733    1.9003 N.ar    1  UNL1       -0.1907
     12 S           5.2509   -2.2088    2.5367 S.2     1  UNL1        0.1165
     13 N           4.3175   -1.4351    1.4075 N.ar    1  UNL1       -0.1886
     14 C           5.1519   -0.9510    0.4681 C.ar    1  UNL1        0.1254
     15 C          -0.2778    0.4013   -0.8978 C.ar    1  UNL1        0.0248
     16 C          -1.2756    0.9701   -1.6974 C.ar    1  UNL1        0.0379
     17 N          -2.6311    0.9752   -1.4922 N.ar    1  UNL1       -0.2515
     18 C          -3.1968    0.3779   -0.3966 C.ar    1  UNL1        0.1076
     19 C          -4.6467    0.4322   -0.2846 C.ar    1  UNL1        0.0635
     20 S          -5.6540    0.6245   -1.7032 S.2     1  UNL1       -0.0924
     21 C          -7.1337    0.6465   -0.8024 C.ar    1  UNL1       -0.0145
     22 C          -6.8147    0.5087    0.4982 C.ar    1  UNL1        0.0073
     23 C          -7.4338    0.4451    1.7682 C.ar    1  UNL1       -0.0361
     24 C          -6.4051    0.2833    2.7176 C.ar    1  UNL1        0.0028
     25 N          -5.1517    0.2408    2.1125 N.ar    1  UNL1       -0.3597
     26 C          -5.4724    0.3832    0.7904 C.ar    1  UNL1        0.0630
     27 C          -2.3166   -0.2495    0.5248 C.ar    1  UNL1        0.1269
     28 N          -2.6252   -0.8940    1.6677 N.ar    1  UNL1       -0.1886
     29 S          -1.2116   -1.4478    2.3202 S.2     1  UNL1        0.1166
     30 N          -0.1273   -0.8743    1.2190 N.ar    1  UNL1       -0.1901
     31 C          -0.8153   -0.2340    0.2556 C.ar    1  UNL1        0.1108
     32 H           2.2550    0.2786    0.6537 H       1  UNL1        0.0362
     33 H           2.1044   -1.2630   -0.2759 H       1  UNL1        0.0362
     34 H           1.2596    1.5655   -3.0720 H       1  UNL1        0.0621
     35 H           3.8504    1.2374   -2.9468 H       1  UNL1        0.0621
     36 H           7.9116    0.2187   -1.9215 H       1  UNL1        0.0830
     37 H           8.6761   -1.0753    0.0993 H       1  UNL1        0.0655
     38 H          -1.0054    1.4895   -2.6168 H       1  UNL1        0.0836
     39 H          -8.0932    0.7590   -1.2854 H       1  UNL1        0.0700
     40 H          -8.4903    0.5035    1.9940 H       1  UNL1        0.0639
     41 H          -6.4691    0.1850    3.7936 H       1  UNL1        0.0807
     42 H          -4.2293    0.0910    2.5088 H       1  UNL1        0.1654
@<TRIPOS>BOND
     1     1     2    1
     2     2     3    2
     3     3     4    1
     4     4     5    2
     5     5     6    1
     6     6     7   ar
     7     7     8   ar
     8     8     9   ar
     9     9    10   ar
    10    10    11   ar
    11    11    12   ar
    12    12    13   ar
    13    13    14   ar
    14     2    15    1
    15    15    16   ar
    16    16    17   ar
    17    17    18   ar
    18    18    19    1
    19    19    20   ar
    20    20    21   ar
    21    21    22   ar
    22    22    23   ar
    23    23    24   ar
    24    24    25   ar
    25    25    26   ar
    26    18    27   ar
    27    27    28   ar
    28    28    29   ar
    29    29    30   ar
    30    30    31   ar
    31     5     1    1
    32    14     6   ar
    33    31    15   ar
    34    14    10   ar
    35    26    19   ar
    36    31    27   ar
    37    26    22   ar
    38     1    32    1
    39     1    33    1
    40     3    34    1
    41     4    35    1
    42     8    36    1
    43     9    37    1
    44    16    38    1
    45    21    39    1
    46    23    40    1
    47    24    41    1
    48    25    42    1
