@<TRIPOS>MOLECULE
*****
 43 49 0 0 0
SMALL
GASTEIGER

@<TRIPOS>ATOM
      1 C           1.4357    0.5957   -0.4495 C.3     1  UNL1       -0.0001
      2 C           2.9080    0.3808   -0.1498 C.2     1  UNL1       -0.0272
      3 C           2.9931   -0.5847    0.7821 C.2     1  UNL1       -0.0568
      4 C           1.6805   -1.0548    1.1489 C.2     1  UNL1       -0.0568
      5 C           0.7332   -0.3972    0.4578 C.2     1  UNL1       -0.0257
      6 C          -0.6591   -0.6335    0.5944 C.ar    1  UNL1        0.0591
      7 S          -1.8515    0.2232   -0.3364 S.2     1  UNL1       -0.0836
      8 C          -3.2084   -0.6001    0.3832 C.ar    1  UNL1        0.0380
      9 C          -4.5644   -0.3063    0.0121 C.ar    1  UNL1        0.0358
     10 S          -5.9009   -0.5012    1.1213 S.2     1  UNL1       -0.0934
     11 C          -7.0904    0.0419   -0.0161 C.ar    1  UNL1        0.0002
     12 C          -6.4530    0.3427   -1.1637 C.ar    1  UNL1        0.0542
     13 N          -7.0232    0.8032   -2.3144 N.ar    1  UNL1       -0.3602
     14 C          -5.9076    0.9249   -3.1386 C.ar    1  UNL1        0.0028
     15 C          -4.7249    0.5417   -2.4706 C.ar    1  UNL1       -0.0355
     16 C          -5.0877    0.1564   -1.1495 C.ar    1  UNL1        0.0149
     17 C          -2.7009   -1.4750    1.2854 C.ar    1  UNL1        0.0360
     18 C          -3.1249   -2.4542    2.2055 C.ar    1  UNL1       -0.0150
     19 C          -1.9513   -2.9514    2.7797 C.ar    1  UNL1        0.0932
     20 O          -0.7970   -2.3707    2.2967 O.2     1  UNL1       -0.4618
     21 C          -1.3278   -1.4924    1.3966 C.ar    1  UNL1        0.1498
     22 C           4.0515    1.0388   -0.7080 C.ar    1  UNL1        0.0431
     23 S           3.7822    2.2914   -1.8925 S.2     1  UNL1       -0.0926
     24 C           5.4467    2.6078   -2.1043 C.ar    1  UNL1        0.0038
     25 C           6.2109    1.7982   -1.3104 C.ar    1  UNL1        0.0968
     26 N           7.5717    1.8593   -1.3003 N.ar    1  UNL1       -0.2514
     27 C           8.0875    0.9524   -0.4287 C.ar    1  UNL1        0.0464
     28 C           7.3340    0.0729    0.3548 C.ar    1  UNL1        0.0464
     29 N           5.9764   -0.0055    0.3612 N.ar    1  UNL1       -0.2508
     30 C           5.4182    0.8940   -0.5053 C.ar    1  UNL1        0.1036
     31 H           1.1340    1.6209   -0.2076 H       1  UNL1        0.0362
     32 H           1.2171    0.3808   -1.5015 H       1  UNL1        0.0362
     33 H           3.8885   -0.9904    1.2292 H       1  UNL1        0.0621
     34 H           1.5405   -1.8324    1.8850 H       1  UNL1        0.0621
     35 H          -8.1423    0.1018    0.2248 H       1  UNL1        0.0714
     36 H          -8.0011    0.9951   -2.4943 H       1  UNL1        0.1653
     37 H          -6.0407    1.2780   -4.1533 H       1  UNL1        0.0807
     38 H          -3.7358    0.5468   -2.9091 H       1  UNL1        0.0639
     39 H          -4.1286   -2.7782    2.4393 H       1  UNL1        0.0655
     40 H          -1.7788   -3.7100    3.5320 H       1  UNL1        0.1030
     41 H           5.7860    3.3657   -2.7952 H       1  UNL1        0.0715
     42 H           9.1721    0.9442   -0.3676 H       1  UNL1        0.0845
     43 H           7.8326   -0.6206    1.0263 H       1  UNL1        0.0845
@<TRIPOS>BOND
     1     1     2    1
     2     2     3    2
     3     3     4    1
     4     4     5    2
     5     5     6    1
     6     6     7   ar
     7     7     8   ar
     8     8     9    1
     9     9    10   ar
    10    10    11   ar
    11    11    12   ar
    12    12    13   ar
    13    13    14   ar
    14    14    15   ar
    15    15    16   ar
    16     8    17   ar
    17    17    18   ar
    18    18    19   ar
    19    19    20   ar
    20    20    21   ar
    21     2    22    1
    22    22    23   ar
    23    23    24   ar
    24    24    25   ar
    25    25    26   ar
    26    26    27   ar
    27    27    28   ar
    28    28    29   ar
    29    29    30   ar
    30     5     1    1
    31    21     6   ar
    32    30    22   ar
    33    16     9   ar
    34    21    17   ar
    35    30    25   ar
    36    16    12   ar
    37     1    31    1
    38     1    32    1
    39     3    33    1
    40     4    34    1
    41    11    35    1
    42    13    36    1
    43    14    37    1
    44    15    38    1
    45    18    39    1
    46    19    40    1
    47    24    41    1
    48    27    42    1
    49    28    43    1
