@<TRIPOS>MOLECULE
*****
 37 42 0 0 0
SMALL
GASTEIGER

@<TRIPOS>ATOM
      1 C           2.4186    0.3269   -0.2354 C.3     1  UNL1       -0.0001
      2 C           3.8256   -0.2160   -0.0833 C.2     1  UNL1       -0.0278
      3 C           3.7303   -1.5166    0.2447 C.2     1  UNL1       -0.0569
      4 C           2.3464   -1.9130    0.3306 C.2     1  UNL1       -0.0568
      5 C           1.5381   -0.8730    0.0584 C.2     1  UNL1       -0.0257
      6 C           0.1211   -0.9457    0.0629 C.ar    1  UNL1        0.0591
      7 S          -0.8906    0.4363   -0.2353 S.2     1  UNL1       -0.0836
      8 C          -2.3840   -0.4447   -0.0630 C.ar    1  UNL1        0.0380
      9 C          -3.6651    0.1863   -0.2167 C.ar    1  UNL1        0.0374
     10 S          -5.0665   -0.6805   -0.8064 S.2     1  UNL1       -0.0918
     11 C          -6.1115    0.6953   -0.7172 C.ar    1  UNL1        0.0192
     12 C          -5.3825    1.7265   -0.2581 C.ar    1  UNL1        0.1424
     13 O          -5.8323    2.9914   -0.0388 O.2     1  UNL1       -0.4624
     14 C          -4.6674    3.5744    0.4222 C.ar    1  UNL1        0.0932
     15 C          -3.5728    2.7022    0.4771 C.ar    1  UNL1       -0.0150
     16 C          -4.0612    1.4633    0.0138 C.ar    1  UNL1        0.0354
     17 C          -2.0511   -1.7302    0.2078 C.ar    1  UNL1        0.0360
     18 C          -2.6543   -2.9748    0.4761 C.ar    1  UNL1       -0.0150
     19 C          -1.5925   -3.8634    0.6701 C.ar    1  UNL1        0.0932
     20 O          -0.3451   -3.2859    0.5524 O.2     1  UNL1       -0.4618
     21 C          -0.7014   -1.9976    0.2766 C.ar    1  UNL1        0.1498
     22 C           5.0551    0.4875   -0.2484 C.ar    1  UNL1        0.0351
     23 C           5.2422    1.8214   -0.5899 C.ar    1  UNL1        0.0422
     24 N           6.5458    2.2682   -0.6866 N.ar    1  UNL1       -0.2551
     25 C           7.3565    1.2718   -0.4188 C.ar    1  UNL1        0.0652
     26 S           6.6179   -0.2239   -0.0433 S.2     1  UNL1       -0.0758
     27 H           2.2356    1.1332    0.4834 H       1  UNL1        0.0362
     28 H           2.2531    0.6940   -1.2543 H       1  UNL1        0.0362
     29 H           4.5356   -2.2128    0.4289 H       1  UNL1        0.0621
     30 H           2.0587   -2.9227    0.5845 H       1  UNL1        0.0621
     31 H          -7.1560    0.6784   -0.9920 H       1  UNL1        0.0731
     32 H          -4.7723    4.6213    0.6761 H       1  UNL1        0.1030
     33 H          -2.5785    2.9587    0.8128 H       1  UNL1        0.0655
     34 H          -3.7040   -3.2250    0.5308 H       1  UNL1        0.0655
     35 H          -1.5665   -4.9212    0.8979 H       1  UNL1        0.1030
     36 H           4.4422    2.5264   -0.7831 H       1  UNL1        0.0841
     37 H           8.4327    1.3839   -0.4330 H       1  UNL1        0.0907
@<TRIPOS>BOND
     1     1     2    1
     2     2     3    2
     3     3     4    1
     4     4     5    2
     5     5     6    1
     6     6     7   ar
     7     7     8   ar
     8     8     9    1
     9     9    10   ar
    10    10    11   ar
    11    11    12   ar
    12    12    13   ar
    13    13    14   ar
    14    14    15   ar
    15    15    16   ar
    16     8    17   ar
    17    17    18   ar
    18    18    19   ar
    19    19    20   ar
    20    20    21   ar
    21     2    22    1
    22    22    23   ar
    23    23    24   ar
    24    24    25   ar
    25    25    26   ar
    26     5     1    1
    27    21     6   ar
    28    26    22   ar
    29    16     9   ar
    30    21    17   ar
    31    16    12   ar
    32     1    27    1
    33     1    28    1
    34     3    29    1
    35     4    30    1
    36    11    31    1
    37    14    32    1
    38    15    33    1
    39    18    34    1
    40    19    35    1
    41    23    36    1
    42    25    37    1
