@<TRIPOS>MOLECULE
*****
 34 38 0 0 0
SMALL
GASTEIGER

@<TRIPOS>ATOM
      1 C          -0.8734   -0.4944   -0.1454 C.3     1  UNL1        0.0012
      2 C           0.0726    0.6727   -0.3026 C.2     1  UNL1       -0.0109
      3 C          -0.6587    1.7874   -0.4813 C.2     1  UNL1       -0.0554
      4 C          -2.0640    1.4713   -0.4562 C.2     1  UNL1       -0.0568
      5 C          -2.2407    0.1538   -0.2511 C.2     1  UNL1       -0.0287
      6 C          -3.5293   -0.4456   -0.1874 C.ar    1  UNL1        0.0239
      7 S          -3.7383   -2.1000   -0.6869 S.2     1  UNL1       -0.0952
      8 C          -5.4264   -2.1087   -0.3690 C.ar    1  UNL1       -0.0094
      9 C          -5.8211   -0.9013    0.1251 C.ar    1  UNL1        0.0269
     10 S          -7.4434   -0.3275    0.6575 S.2     1  UNL1       -0.0961
     11 C          -6.6162    1.1732    1.0410 C.ar    1  UNL1       -0.0231
     12 C          -5.2425    1.2090    0.7743 C.ar    1  UNL1       -0.0459
     13 C          -4.7537   -0.0069    0.2168 C.ar    1  UNL1        0.0037
     14 C           1.4952    0.7195   -0.2868 C.ar    1  UNL1        0.1052
     15 N           2.2453    1.7967   -0.4300 N.ar    1  UNL1       -0.2469
     16 C           3.5849    1.4664   -0.3616 C.ar    1  UNL1        0.0462
     17 C           3.8767    0.1312   -0.1643 C.ar    1  UNL1        0.0763
     18 S           2.4006   -0.7384   -0.0618 S.2     1  UNL1       -0.0644
     19 C           5.1782   -0.5182   -0.0504 C.ar    1  UNL1        0.1710
     20 N           5.2118   -1.8386    0.1412 N.ar    1  UNL1       -0.2154
     21 C           6.4377   -2.3441    0.2331 C.ar    1  UNL1        0.1201
     22 N           7.5751   -1.6580    0.1514 N.ar    1  UNL1       -0.2241
     23 C           7.4086   -0.3517   -0.0400 C.ar    1  UNL1        0.1201
     24 N           6.2440    0.2811   -0.1494 N.ar    1  UNL1       -0.2154
     25 H          -0.7210   -1.2280   -0.9443 H       1  UNL1        0.0363
     26 H          -0.7491   -0.9754    0.8309 H       1  UNL1        0.0363
     27 H          -0.2732    2.7875   -0.6268 H       1  UNL1        0.0621
     28 H          -2.8275    2.2194   -0.6081 H       1  UNL1        0.0621
     29 H          -6.0469   -2.9768   -0.5431 H       1  UNL1        0.0705
     30 H          -7.2134    1.9708    1.4618 H       1  UNL1        0.0694
     31 H          -4.6410    2.0829    0.9898 H       1  UNL1        0.0629
     32 H           4.3240    2.2529   -0.4637 H       1  UNL1        0.0842
     33 H           6.5186   -3.4147    0.3890 H       1  UNL1        0.1048
     34 H           8.3067    0.2526   -0.1136 H       1  UNL1        0.1048
@<TRIPOS>BOND
     1     1     2    1
     2     2     3    2
     3     3     4    1
     4     4     5    2
     5     5     6    1
     6     6     7   ar
     7     7     8   ar
     8     8     9   ar
     9     9    10   ar
    10    10    11   ar
    11    11    12   ar
    12    12    13   ar
    13     2    14    1
    14    14    15   ar
    15    15    16   ar
    16    16    17   ar
    17    17    18   ar
    18    17    19    1
    19    19    20   ar
    20    20    21   ar
    21    21    22   ar
    22    22    23   ar
    23    23    24   ar
    24     5     1    1
    25    13     6   ar
    26    18    14   ar
    27    24    19   ar
    28    13     9   ar
    29     1    25    1
    30     1    26    1
    31     3    27    1
    32     4    28    1
    33     8    29    1
    34    11    30    1
    35    12    31    1
    36    16    32    1
    37    21    33    1
    38    23    34    1
