@<TRIPOS>MOLECULE
*****
 41 47 0 0 0
SMALL
GASTEIGER

@<TRIPOS>ATOM
      1 C          -2.0994   -1.0520   -0.0116 C.ar    1  UNL1        0.0083
      2 C          -2.8886    0.0861   -0.0194 C.ar    1  UNL1        0.1399
      3 O          -2.1186    1.2278   -0.0809 O.2     1  UNL1       -0.4525
      4 C          -0.8345    0.7908   -0.1115 C.ar    1  UNL1        0.1623
      5 C          -0.7870   -0.5458   -0.0722 C.ar    1  UNL1        0.0867
      6 N           0.5309   -0.9073   -0.1063 N.ar    1  UNL1       -0.3510
      7 C           1.3258    0.2350   -0.1687 C.ar    1  UNL1        0.0619
      8 C           0.4538    1.3429   -0.1727 C.ar    1  UNL1        0.0613
      9 C           0.9568    2.6324   -0.2295 C.ar    1  UNL1        0.0410
     10 N           2.2869    2.8342   -0.2814 N.ar    1  UNL1       -0.2541
     11 C           3.1272    1.7903   -0.2782 C.ar    1  UNL1        0.0736
     12 C           4.4634    2.1188   -0.3341 C.ar    1  UNL1       -0.0351
     13 C           5.4634    1.1510   -0.3388 C.ar    1  UNL1       -0.0520
     14 C           5.1464   -0.2050   -0.2864 C.ar    1  UNL1       -0.0171
     15 C           6.1971   -1.1386   -0.2938 C.ar    1  UNL1       -0.0540
     16 C           5.9461   -2.5040   -0.2434 C.ar    1  UNL1       -0.0612
     17 C           4.6371   -2.9471   -0.1849 C.ar    1  UNL1       -0.0611
     18 C           3.5848   -2.0229   -0.1771 C.ar    1  UNL1       -0.0533
     19 C           3.7893   -0.6181   -0.2271 C.ar    1  UNL1       -0.0067
     20 C           2.7561    0.4137   -0.2233 C.ar    1  UNL1        0.0321
     21 C          -4.3272    0.3273    0.0226 C.ar    1  UNL1        0.0455
     22 C          -4.8896    1.6284    0.0020 C.ar    1  UNL1       -0.0489
     23 C          -6.2794    1.8923    0.0416 C.ar    1  UNL1       -0.0589
     24 C          -7.2453    0.8786    0.1059 C.ar    1  UNL1       -0.0335
     25 C          -6.7564   -0.4485    0.1298 C.ar    1  UNL1        0.1006
     26 N          -7.5193   -1.5504    0.1898 N.ar    1  UNL1       -0.1908
     27 S          -6.4817   -2.8418    0.1938 S.2     1  UNL1        0.1165
     28 N          -5.0192   -2.0667    0.1198 N.ar    1  UNL1       -0.1901
     29 C          -5.2683   -0.7434    0.0878 C.ar    1  UNL1        0.1105
     30 H          -2.4232   -2.0812    0.0311 H       1  UNL1        0.0676
     31 H           0.8151   -1.8744   -0.0864 H       1  UNL1        0.1660
     32 H           0.3284    3.5155   -0.2350 H       1  UNL1        0.0837
     33 H           4.7463    3.1689   -0.3760 H       1  UNL1        0.0639
     34 H           6.4996    1.4806   -0.3845 H       1  UNL1        0.0624
     35 H           7.2321   -0.8039   -0.3396 H       1  UNL1        0.0624
     36 H           6.7687   -3.2135   -0.2499 H       1  UNL1        0.0618
     37 H           4.4249   -4.0126   -0.1450 H       1  UNL1        0.0618
     38 H           2.5958   -2.4493   -0.1301 H       1  UNL1        0.0624
     39 H          -4.2196    2.4892   -0.0475 H       1  UNL1        0.0625
     40 H          -6.6115    2.9308    0.0211 H       1  UNL1        0.0618
     41 H          -8.3071    1.0921    0.1358 H       1  UNL1        0.0640
@<TRIPOS>BOND
     1     1     2   ar
     2     2     3   ar
     3     3     4   ar
     4     4     5   ar
     5     5     6   ar
     6     6     7   ar
     7     7     8   ar
     8     8     9   ar
     9     9    10   ar
    10    10    11   ar
    11    11    12   ar
    12    12    13   ar
    13    13    14   ar
    14    14    15   ar
    15    15    16   ar
    16    16    17   ar
    17    17    18   ar
    18    18    19   ar
    19    19    20   ar
    20     2    21    1
    21    21    22   ar
    22    22    23   ar
    23    23    24   ar
    24    24    25   ar
    25    25    26   ar
    26    26    27   ar
    27    27    28   ar
    28    28    29   ar
    29     5     1   ar
    30    20     7   ar
    31    29    21   ar
    32     8     4   ar
    33    20    11   ar
    34    29    25   ar
    35    19    14   ar
    36     1    30    1
    37     6    31    1
    38     9    32    1
    39    12    33    1
    40    13    34    1
    41    15    35    1
    42    16    36    1
    43    17    37    1
    44    18    38    1
    45    22    39    1
    46    23    40    1
    47    24    41    1
