@<TRIPOS>MOLECULE
*****
 32 36 0 0 0
SMALL
GASTEIGER

@<TRIPOS>ATOM
      1 SI          1.9412    1.5230   -0.8356 Si      1  UNL1        0.0000
      2 C           1.0884   -0.0919   -0.0966 C.2     1  UNL1        0.0000
      3 C           1.9942   -0.9359    0.4555 C.2     1  UNL1        0.0000
      4 C           3.2927   -0.3902    0.3571 C.ar    1  UNL1        0.0000
      5 N           4.4657   -0.9167    0.7972 N.ar    1  UNL1        0.0000
      6 C           5.4754   -0.0236    0.4739 C.ar    1  UNL1        0.0000
      7 C           4.9271    1.0733   -0.1771 C.ar    1  UNL1        0.0000
      8 C           3.5649    0.8176   -0.2364 C.ar    1  UNL1        0.0000
      9 C          -0.3365   -0.2997   -0.2495 C.ar    1  UNL1        0.0000
     10 C          -0.8934   -1.2564   -1.1295 C.ar    1  UNL1        0.0000
     11 C          -2.3051   -1.4280   -1.2545 C.ar    1  UNL1        0.0000
     12 S          -3.1764   -2.5221   -2.2717 S.2     1  UNL1        0.0000
     13 C          -4.7016   -1.9667   -1.7007 C.ar    1  UNL1        0.0000
     14 C          -4.5871   -0.9706   -0.7539 C.ar    1  UNL1        0.0000
     15 C          -3.2300   -0.6928   -0.5290 C.ar    1  UNL1        0.0000
     16 C          -2.7022    0.2708    0.3826 C.ar    1  UNL1        0.0000
     17 C          -3.3494    1.1166    1.2326 C.ar    1  UNL1        0.0000
     18 N          -2.3413    1.7979    1.8834 N.ar    1  UNL1        0.0000
     19 C          -1.1027    1.3691    1.4336 C.ar    1  UNL1        0.0000
     20 C          -1.3066    0.4065    0.4674 C.ar    1  UNL1        0.0000
     21 H           1.8004    1.5663   -2.3151 H       1  UNL1        0.0000
     22 H           1.5070    2.7432   -0.1036 H       1  UNL1        0.0000
     23 H           1.7616   -1.8940    0.9014 H       1  UNL1        0.0000
     24 H           4.5887   -1.7997    1.2751 H       1  UNL1        0.0000
     25 H           6.4995   -0.2512    0.7372 H       1  UNL1        0.0000
     26 H           5.4748    1.9297   -0.5478 H       1  UNL1        0.0000
     27 H          -0.2329   -1.8737   -1.7355 H       1  UNL1        0.0000
     28 H          -5.6088   -2.4051   -2.0927 H       1  UNL1        0.0000
     29 H          -5.4317   -0.4941   -0.2743 H       1  UNL1        0.0000
     30 H          -4.3910    1.3034    1.4525 H       1  UNL1        0.0000
     31 H          -2.4825    2.5023    2.5961 H       1  UNL1        0.0000
     32 H          -0.2023    1.7927    1.8580 H       1  UNL1        0.0000
@<TRIPOS>BOND
     1     1     2    1
     2     2     3    2
     3     3     4    1
     4     4     5   ar
     5     5     6   ar
     6     6     7   ar
     7     7     8   ar
     8     2     9    1
     9     9    10   ar
    10    10    11   ar
    11    11    12   ar
    12    12    13   ar
    13    13    14   ar
    14    14    15   ar
    15    15    16   ar
    16    16    17   ar
    17    17    18   ar
    18    18    19   ar
    19    19    20   ar
    20     8     1    1
    21    20     9   ar
    22     8     4   ar
    23    15    11   ar
    24    20    16   ar
    25     1    21    1
    26     1    22    1
    27     3    23    1
    28     5    24    1
    29     6    25    1
    30     7    26    1
    31    10    27    1
    32    13    28    1
    33    14    29    1
    34    17    30    1
    35    18    31    1
    36    19    32    1
