@<TRIPOS>MOLECULE
*****
 31 35 0 0 0
SMALL
GASTEIGER

@<TRIPOS>ATOM
      1 SI          0.6686    3.5591    0.1347 Si      1  UNL1        0.0000
      2 C           1.7460    2.0320    0.0607 C.2     1  UNL1        0.0000
      3 C           1.0031    0.9055   -0.0017 C.ar    1  UNL1        0.0000
      4 C           1.5455   -0.4814   -0.0644 C.ar    1  UNL1        0.0000
      5 C           0.6779   -1.5292   -0.1105 C.ar    1  UNL1        0.0000
      6 C          -0.7120   -1.2345   -0.0903 C.ar    1  UNL1        0.0000
      7 N          -1.6809   -2.2004   -0.1284 N.ar    1  UNL1        0.0000
      8 C          -2.8961   -1.5558   -0.0964 C.ar    1  UNL1        0.0000
      9 C          -4.2903   -1.8056   -0.1021 C.ar    1  UNL1        0.0000
     10 C          -4.8721   -0.5528   -0.0459 C.ar    1  UNL1        0.0000
     11 N          -3.8995    0.4187   -0.0074 N.ar    1  UNL1        0.0000
     12 C          -2.6857   -0.2082   -0.0392 C.ar    1  UNL1        0.0000
     13 C          -1.2982    0.0155   -0.0347 C.ar    1  UNL1        0.0000
     14 C          -0.4730    1.1647    0.0132 C.ar    1  UNL1        0.0000
     15 C          -0.8371    2.4578    0.0771 C.2     1  UNL1        0.0000
     16 C           2.9406   -0.7931   -0.1198 C.ar    1  UNL1        0.0000
     17 C           3.8647   -0.5341   -1.1196 C.ar    1  UNL1        0.0000
     18 N           5.1639   -0.9394   -0.8778 N.ar    1  UNL1        0.0000
     19 C           5.2221   -1.4981    0.3097 C.ar    1  UNL1        0.0000
     20 S           3.7542   -1.5704    1.1898 S.2     1  UNL1        0.0000
     21 H           0.7968    4.4003   -1.0793 H       1  UNL1        0.0000
     22 H           0.7918    4.2788    1.4248 H       1  UNL1        0.0000
     23 H           2.8213    2.1134    0.0771 H       1  UNL1        0.0000
     24 H           1.0160   -2.5588   -0.1735 H       1  UNL1        0.0000
     25 H          -1.5765   -3.2058   -0.1716 H       1  UNL1        0.0000
     26 H          -4.8024   -2.7568   -0.1411 H       1  UNL1        0.0000
     27 H          -5.9158   -0.2669   -0.0297 H       1  UNL1        0.0000
     28 H          -4.0152    1.4229    0.0366 H       1  UNL1        0.0000
     29 H          -1.8359    2.8589    0.1013 H       1  UNL1        0.0000
     30 H           3.6340   -0.0443   -2.0585 H       1  UNL1        0.0000
     31 H           6.1440   -1.8920    0.7170 H       1  UNL1        0.0000
@<TRIPOS>BOND
     1     1     2    1
     2     2     3    2
     3     3     4   ar
     4     4     5   ar
     5     5     6   ar
     6     6     7   ar
     7     7     8   ar
     8     8     9   ar
     9     9    10   ar
    10    10    11   ar
    11    11    12   ar
    12    12    13   ar
    13    13    14   ar
    14    14    15    2
    15     4    16    1
    16    16    17   ar
    17    17    18   ar
    18    18    19   ar
    19    19    20   ar
    20    15     1    1
    21    20    16   ar
    22    14     3   ar
    23    13     6   ar
    24    12     8   ar
    25     1    21    1
    26     1    22    1
    27     2    23    1
    28     5    24    1
    29     7    25    1
    30     9    26    1
    31    10    27    1
    32    11    28    1
    33    15    29    1
    34    17    30    1
    35    19    31    1
