@<TRIPOS>MOLECULE
*****
 42 47 0 0 0
SMALL
GASTEIGER

@<TRIPOS>ATOM
      1 C           1.8589   -1.4803    0.3630 C.ar    1  UNL1       -0.0075
      2 C           2.5133   -0.2679    0.2817 C.ar    1  UNL1        0.1363
      3 O           1.5923    0.7240    0.1085 O.2     1  UNL1       -0.4542
      4 C           0.3535    0.1492    0.0698 C.ar    1  UNL1        0.1440
      5 C           0.4614   -1.2202    0.2320 C.ar    1  UNL1        0.0291
      6 C          -0.7310   -1.9794    0.2731 C.ar    1  UNL1       -0.0065
      7 C          -0.6172   -3.3672    0.5165 C.ar    1  UNL1       -0.0533
      8 C          -1.7517   -4.1529    0.6671 C.ar    1  UNL1       -0.0611
      9 C          -2.9990   -3.5552    0.6101 C.ar    1  UNL1       -0.0611
     10 C          -3.1123   -2.1808    0.3565 C.ar    1  UNL1       -0.0534
     11 C          -1.9981   -1.3367    0.1145 C.ar    1  UNL1       -0.0088
     12 C          -2.0740    0.0896   -0.2051 C.ar    1  UNL1        0.0025
     13 C          -0.8629    0.8255   -0.1246 C.ar    1  UNL1        0.0262
     14 C          -0.8021    2.2241   -0.2407 C.ar    1  UNL1       -0.0499
     15 C          -1.9581    2.9509   -0.4720 C.ar    1  UNL1       -0.0532
     16 C          -3.1703    2.2951   -0.6787 C.ar    1  UNL1       -0.0144
     17 C          -4.3000    3.0593   -0.9977 C.ar    1  UNL1       -0.0359
     18 C          -5.4831    2.4160   -1.2967 C.ar    1  UNL1        0.0281
     19 N          -5.6021    1.0817   -1.3284 N.ar    1  UNL1       -0.2626
     20 C          -4.4918    0.3664   -1.0062 C.ar    1  UNL1        0.0359
     21 C          -3.2424    0.8774   -0.6023 C.ar    1  UNL1        0.0086
     22 C           3.9130    0.1481    0.3452 C.ar    1  UNL1        0.0173
     23 C           4.2787    1.4974    0.2192 C.ar    1  UNL1       -0.0511
     24 C           5.6193    1.8893    0.2804 C.ar    1  UNL1       -0.0611
     25 C           6.6162    0.9362    0.4690 C.ar    1  UNL1       -0.0617
     26 C           6.2736   -0.4073    0.5960 C.ar    1  UNL1       -0.0611
     27 C           4.9321   -0.7980    0.5345 C.ar    1  UNL1       -0.0511
     28 H           2.3281   -2.4415    0.5118 H       1  UNL1        0.0662
     29 H           0.3552   -3.8438    0.6106 H       1  UNL1        0.0624
     30 H          -1.6607   -5.2174    0.8642 H       1  UNL1        0.0618
     31 H          -3.8947   -4.1480    0.7807 H       1  UNL1        0.0618
     32 H          -4.1168   -1.7766    0.4237 H       1  UNL1        0.0624
     33 H           0.1436    2.7536   -0.1422 H       1  UNL1        0.0625
     34 H          -1.8881    4.0345   -0.5402 H       1  UNL1        0.0624
     35 H          -4.2617    4.1434   -1.0340 H       1  UNL1        0.0639
     36 H          -6.3799    2.9735   -1.5490 H       1  UNL1        0.0830
     37 H          -4.6476   -0.6951   -1.1586 H       1  UNL1        0.0836
     38 H           3.5188    2.2617    0.0707 H       1  UNL1        0.0625
     39 H           5.8812    2.9394    0.1804 H       1  UNL1        0.0618
     40 H           7.6586    1.2403    0.5166 H       1  UNL1        0.0618
     41 H           7.0498   -1.1540    0.7433 H       1  UNL1        0.0618
     42 H           4.6978   -1.8543    0.6371 H       1  UNL1        0.0625
@<TRIPOS>BOND
     1     1     2   ar
     2     2     3   ar
     3     3     4   ar
     4     4     5   ar
     5     5     6   ar
     6     6     7   ar
     7     7     8   ar
     8     8     9   ar
     9     9    10   ar
    10    10    11   ar
    11    11    12   ar
    12    12    13   ar
    13    13    14   ar
    14    14    15   ar
    15    15    16   ar
    16    16    17   ar
    17    17    18   ar
    18    18    19   ar
    19    19    20   ar
    20    20    21   ar
    21     2    22    1
    22    22    23   ar
    23    23    24   ar
    24    24    25   ar
    25    25    26   ar
    26    26    27   ar
    27     5     1   ar
    28    11     6   ar
    29    21    12   ar
    30    27    22   ar
    31    13     4   ar
    32    21    16   ar
    33     1    28    1
    34     7    29    1
    35     8    30    1
    36     9    31    1
    37    10    32    1
    38    14    33    1
    39    15    34    1
    40    17    35    1
    41    18    36    1
    42    20    37    1
    43    23    38    1
    44    24    39    1
    45    25    40    1
    46    26    41    1
    47    27    42    1
