@<TRIPOS>MOLECULE
*****
 38 43 0 0 0
SMALL
GASTEIGER

@<TRIPOS>ATOM
      1 C           1.9742   -0.5599    1.0174 C.ar    1  UNL1       -0.0058
      2 C           2.4807    0.1035   -0.0894 C.ar    1  UNL1        0.1545
      3 O           1.4410    0.5412   -0.8675 O.2     1  UNL1       -0.4495
      4 C           0.2998    0.1557   -0.2535 C.ar    1  UNL1        0.1790
      5 C           0.5539   -0.5303    0.9182 C.ar    1  UNL1        0.0322
      6 C          -0.5646   -0.9954    1.6677 C.ar    1  UNL1       -0.0062
      7 C          -0.3375   -1.6979    2.8663 C.ar    1  UNL1       -0.0533
      8 C          -1.4112   -2.1677    3.6255 C.ar    1  UNL1       -0.0611
      9 C          -2.7223   -1.9472    3.2063 C.ar    1  UNL1       -0.0611
     10 C          -2.9803   -1.2537    2.0218 C.ar    1  UNL1       -0.0533
     11 C          -1.9223   -0.7661    1.2319 C.ar    1  UNL1       -0.0043
     12 C          -2.2175   -0.0611    0.0266 C.ar    1  UNL1        0.0576
     13 C          -3.3680    0.3479   -0.7065 C.ar    1  UNL1        0.1173
     14 N          -4.6945    0.1734   -0.4566 N.ar    1  UNL1       -0.2511
     15 C          -5.5137    0.7085   -1.3920 C.ar    1  UNL1        0.0285
     16 C          -5.1093    1.3915   -2.5358 C.ar    1  UNL1       -0.0401
     17 C          -3.7498    1.5670   -2.7861 C.ar    1  UNL1       -0.0158
     18 C          -2.9017    1.0215   -1.8320 C.ar    1  UNL1        0.1546
     19 O          -1.5432    1.0555   -1.8426 O.2     1  UNL1       -0.4495
     20 C          -1.1464    0.4025   -0.7220 C.ar    1  UNL1        0.1810
     21 C           3.8283    0.4111   -0.5641 C.ar    1  UNL1        0.1060
     22 C           4.9616    0.0169    0.1431 C.ar    1  UNL1       -0.0327
     23 C           6.2192    0.3413   -0.3632 C.ar    1  UNL1       -0.0582
     24 C           6.3115    1.0470   -1.5559 C.ar    1  UNL1       -0.0436
     25 C           5.1370    1.4007   -2.1962 C.ar    1  UNL1        0.0284
     26 N           3.9070    1.0997   -1.7285 N.ar    1  UNL1       -0.2519
     27 H           2.5584   -1.0125    1.8048 H       1  UNL1        0.0662
     28 H           0.6716   -1.8875    3.2227 H       1  UNL1        0.0624
     29 H          -1.2244   -2.7092    4.5498 H       1  UNL1        0.0618
     30 H          -3.5522   -2.3168    3.8041 H       1  UNL1        0.0618
     31 H          -4.0160   -1.0996    1.7247 H       1  UNL1        0.0624
     32 H          -6.5742    0.5684   -1.1913 H       1  UNL1        0.0830
     33 H          -5.8494    1.7838   -3.2263 H       1  UNL1        0.0634
     34 H          -3.3729    2.0881   -3.6563 H       1  UNL1        0.0655
     35 H           4.8837   -0.5336    1.0736 H       1  UNL1        0.0640
     36 H           7.1182    0.0452    0.1699 H       1  UNL1        0.0619
     37 H           7.2737    1.3152   -1.9773 H       1  UNL1        0.0633
     38 H           5.1514    1.9529   -3.1316 H       1  UNL1        0.0830
@<TRIPOS>BOND
     1     1     2   ar
     2     2     3   ar
     3     3     4   ar
     4     4     5   ar
     5     5     6   ar
     6     6     7   ar
     7     7     8   ar
     8     8     9   ar
     9     9    10   ar
    10    10    11   ar
    11    11    12   ar
    12    12    13   ar
    13    13    14   ar
    14    14    15   ar
    15    15    16   ar
    16    16    17   ar
    17    17    18   ar
    18    18    19   ar
    19    19    20   ar
    20     2    21    1
    21    21    22   ar
    22    22    23   ar
    23    23    24   ar
    24    24    25   ar
    25    25    26   ar
    26     5     1   ar
    27    11     6   ar
    28    20    12   ar
    29    26    21   ar
    30    20     4   ar
    31    18    13   ar
    32     1    27    1
    33     7    28    1
    34     8    29    1
    35     9    30    1
    36    10    31    1
    37    15    32    1
    38    16    33    1
    39    17    34    1
    40    22    35    1
    41    23    36    1
    42    24    37    1
    43    25    38    1
