@<TRIPOS>MOLECULE
*****
 40 45 0 0 0
SMALL
GASTEIGER

@<TRIPOS>ATOM
      1 C           2.7400    1.2067   -1.2863 C.ar    1  UNL1       -0.0080
      2 C           3.2762    0.3720   -0.3179 C.ar    1  UNL1        0.1364
      3 O           2.2605   -0.2332    0.3758 O.2     1  UNL1       -0.4511
      4 C           1.1011    0.2194   -0.1545 C.ar    1  UNL1        0.1783
      5 C           1.3294    1.1105   -1.1835 C.ar    1  UNL1        0.0245
      6 C           0.2065    1.6646   -1.8310 C.ar    1  UNL1       -0.0502
      7 C          -1.1297    1.3278   -1.4496 C.ar    1  UNL1       -0.0496
      8 C          -1.4240    0.4197   -0.4013 C.ar    1  UNL1        0.0322
      9 C          -0.3413   -0.1426    0.2553 C.ar    1  UNL1        0.1788
     10 O          -0.7291   -0.9895    1.2324 O.2     1  UNL1       -0.4511
     11 C          -2.0891   -0.9874    1.2217 C.ar    1  UNL1        0.1370
     12 C          -2.8744   -1.7411    2.0885 C.ar    1  UNL1       -0.0181
     13 C          -4.2582   -1.6265    1.9477 C.ar    1  UNL1       -0.0505
     14 C          -4.8322   -0.7915    0.9788 C.ar    1  UNL1       -0.0171
     15 C          -6.2272   -0.6961    0.8600 C.ar    1  UNL1       -0.0540
     16 C          -6.8110    0.1315   -0.1004 C.ar    1  UNL1       -0.0612
     17 C          -6.0093    0.8774   -0.9581 C.ar    1  UNL1       -0.0611
     18 C          -4.6188    0.8004   -0.8606 C.ar    1  UNL1       -0.0533
     19 C          -4.0077   -0.0300    0.1031 C.ar    1  UNL1       -0.0065
     20 C          -2.5867   -0.1352    0.2333 C.ar    1  UNL1        0.0357
     21 C           4.6361    0.0245    0.0921 C.ar    1  UNL1        0.0173
     22 C           4.8721   -0.8799    1.1393 C.ar    1  UNL1       -0.0511
     23 C           6.1742   -1.2088    1.5275 C.ar    1  UNL1       -0.0611
     24 C           7.2620   -0.6374    0.8732 C.ar    1  UNL1       -0.0617
     25 C           7.0485    0.2619   -0.1681 C.ar    1  UNL1       -0.0611
     26 C           5.7453    0.5902   -0.5554 C.ar    1  UNL1       -0.0511
     27 H           3.2989    1.8130   -1.9840 H       1  UNL1        0.0661
     28 H           0.3535    2.3707   -2.6465 H       1  UNL1        0.0625
     29 H          -1.9390    1.8001   -2.0005 H       1  UNL1        0.0625
     30 H          -2.4256   -2.3850    2.8357 H       1  UNL1        0.0655
     31 H          -4.8932   -2.2070    2.6151 H       1  UNL1        0.0625
     32 H          -6.8766   -1.2691    1.5188 H       1  UNL1        0.0624
     33 H          -7.8936    0.1924   -0.1773 H       1  UNL1        0.0618
     34 H          -6.4660    1.5214   -1.7054 H       1  UNL1        0.0618
     35 H          -4.0268    1.3956   -1.5453 H       1  UNL1        0.0624
     36 H           4.0385   -1.3402    1.6666 H       1  UNL1        0.0625
     37 H           6.3342   -1.9116    2.3411 H       1  UNL1        0.0618
     38 H           8.2744   -0.8930    1.1748 H       1  UNL1        0.0618
     39 H           7.8959    0.7098   -0.6809 H       1  UNL1        0.0618
     40 H           5.6121    1.2952   -1.3716 H       1  UNL1        0.0625
@<TRIPOS>BOND
     1     1     2   ar
     2     2     3   ar
     3     3     4   ar
     4     4     5   ar
     5     5     6   ar
     6     6     7   ar
     7     7     8   ar
     8     8     9   ar
     9     9    10   ar
    10    10    11   ar
    11    11    12   ar
    12    12    13   ar
    13    13    14   ar
    14    14    15   ar
    15    15    16   ar
    16    16    17   ar
    17    17    18   ar
    18    18    19   ar
    19    19    20   ar
    20     2    21    1
    21    21    22   ar
    22    22    23   ar
    23    23    24   ar
    24    24    25   ar
    25    25    26   ar
    26     5     1   ar
    27    20     8   ar
    28    26    21   ar
    29     9     4   ar
    30    20    11   ar
    31    19    14   ar
    32     1    27    1
    33     6    28    1
    34     7    29    1
    35    12    30    1
    36    13    31    1
    37    15    32    1
    38    16    33    1
    39    17    34    1
    40    18    35    1
    41    22    36    1
    42    23    37    1
    43    24    38    1
    44    25    39    1
    45    26    40    1
