@<TRIPOS>MOLECULE
*****
 37 43 0 0 0
SMALL
GASTEIGER

@<TRIPOS>ATOM
      1 C           1.9348   -1.7035   -0.1463 C.ar    1  UNL1       -0.0065
      2 C           2.3360   -0.3830   -0.2171 C.ar    1  UNL1        0.1566
      3 O           1.2323    0.4225   -0.1363 O.2     1  UNL1       -0.4525
      4 C           0.1310   -0.3726   -0.0146 C.ar    1  UNL1        0.1456
      5 C           0.5209   -1.7054   -0.0163 C.ar    1  UNL1        0.0215
      6 C          -0.4641   -2.6954    0.0997 C.ar    1  UNL1       -0.0503
      7 C          -1.8094   -2.3042    0.2133 C.ar    1  UNL1       -0.0511
      8 C          -2.2242   -0.9555    0.2168 C.ar    1  UNL1        0.0138
      9 C          -3.6072   -0.6281    0.3355 C.ar    1  UNL1        0.0809
     10 N          -4.5295   -1.6108    0.4455 N.ar    1  UNL1       -0.2543
     11 C          -5.8430   -1.2971    0.5582 C.ar    1  UNL1        0.0283
     12 C          -6.3331   -0.0082    0.5701 C.ar    1  UNL1       -0.0429
     13 C          -5.4188    1.0248    0.4596 C.ar    1  UNL1       -0.0490
     14 C          -4.0467    0.7226    0.3412 C.ar    1  UNL1        0.0292
     15 C          -3.0586    1.7522    0.2240 C.ar    1  UNL1        0.1097
     16 N          -3.2870    3.0791    0.2109 N.ar    1  UNL1       -0.1901
     17 S          -1.8112    3.8152    0.0564 S.2     1  UNL1        0.1165
     18 N          -0.8229    2.4932   -0.0005 N.ar    1  UNL1       -0.1900
     19 C          -1.6019    1.4029    0.0991 C.ar    1  UNL1        0.1118
     20 C          -1.2022    0.0418    0.0973 C.ar    1  UNL1        0.0552
     21 C           3.6089    0.2979   -0.3515 C.ar    1  UNL1        0.1340
     22 N           3.6265    1.6702   -0.3884 N.ar    1  UNL1       -0.2496
     23 C           4.7958    2.3679   -0.5138 C.ar    1  UNL1        0.0305
     24 C           6.0785    1.8435   -0.6182 C.ar    1  UNL1       -0.0153
     25 C           6.1129    0.4370   -0.5853 C.ar    1  UNL1        0.1035
     26 N           7.2246   -0.3108   -0.6682 N.ar    1  UNL1       -0.1907
     27 S           6.7374   -1.8934   -0.5828 S.2     1  UNL1        0.1165
     28 N           5.0965   -1.7045   -0.4368 N.ar    1  UNL1       -0.1885
     29 C           4.8507   -0.3797   -0.4483 C.ar    1  UNL1        0.1287
     30 H           2.5799   -2.5701   -0.1833 H       1  UNL1        0.0662
     31 H          -0.2006   -3.7494    0.1025 H       1  UNL1        0.0625
     32 H          -2.5559   -3.0960    0.3022 H       1  UNL1        0.0624
     33 H          -6.5122   -2.1495    0.6416 H       1  UNL1        0.0830
     34 H          -7.3953    0.1859    0.6628 H       1  UNL1        0.0633
     35 H          -5.7621    2.0568    0.4646 H       1  UNL1        0.0625
     36 H           4.6554    3.4488   -0.5286 H       1  UNL1        0.0830
     37 H           6.9641    2.4547   -0.7153 H       1  UNL1        0.0655
@<TRIPOS>BOND
     1     1     2   ar
     2     2     3   ar
     3     3     4   ar
     4     4     5   ar
     5     5     6   ar
     6     6     7   ar
     7     7     8   ar
     8     8     9   ar
     9     9    10   ar
    10    10    11   ar
    11    11    12   ar
    12    12    13   ar
    13    13    14   ar
    14    14    15   ar
    15    15    16   ar
    16    16    17   ar
    17    17    18   ar
    18    18    19   ar
    19    19    20   ar
    20     2    21    1
    21    21    22   ar
    22    22    23   ar
    23    23    24   ar
    24    24    25   ar
    25    25    26   ar
    26    26    27   ar
    27    27    28   ar
    28    28    29   ar
    29     5     1   ar
    30    20     8   ar
    31    29    21   ar
    32    20     4   ar
    33    29    25   ar
    34    14     9   ar
    35    19    15   ar
    36     1    30    1
    37     6    31    1
    38     7    32    1
    39    11    33    1
    40    12    34    1
    41    13    35    1
    42    23    36    1
    43    24    37    1
