@<TRIPOS>MOLECULE
*****
 33 38 0 0 0
SMALL
GASTEIGER

@<TRIPOS>ATOM
      1 C          -1.2402    1.7230   -0.1049 C.ar    1  UNL1        0.0289
      2 C          -1.9827    0.5583    0.0371 C.ar    1  UNL1        0.1596
      3 O          -1.1792   -0.5589    0.1324 O.2     1  UNL1       -0.4493
      4 C           0.0916   -0.0871    0.0487 C.ar    1  UNL1        0.1813
      5 C           0.0699    1.2432   -0.0900 C.ar    1  UNL1        0.1748
      6 O           1.3386    1.7235   -0.1745 O.2     1  UNL1       -0.4508
      7 C           2.1396    0.6055   -0.0791 C.ar    1  UNL1        0.1485
      8 C           1.4033   -0.5723    0.0641 C.ar    1  UNL1        0.0638
      9 C           2.0592   -1.8051    0.1755 C.ar    1  UNL1       -0.0468
     10 C           3.4632   -1.8210    0.1393 C.ar    1  UNL1       -0.0530
     11 C           4.2110   -0.6377   -0.0048 C.ar    1  UNL1       -0.0114
     12 C           5.6096   -0.6333   -0.0430 C.ar    1  UNL1       -0.0358
     13 C           6.2727    0.5793   -0.1878 C.ar    1  UNL1        0.0282
     14 N           5.6558    1.7773   -0.2966 N.ar    1  UNL1       -0.2625
     15 C           4.3039    1.7684   -0.2592 C.ar    1  UNL1        0.0388
     16 C           3.5485    0.6027   -0.1168 C.ar    1  UNL1        0.0432
     17 C          -3.4177    0.3429    0.0983 C.ar    1  UNL1        0.1341
     18 N          -4.2125    1.4612    0.0027 N.ar    1  UNL1       -0.2496
     19 C          -5.5771    1.3693    0.0491 C.ar    1  UNL1        0.0305
     20 C          -6.3370    0.2146    0.1905 C.ar    1  UNL1       -0.0153
     21 C          -5.5650   -0.9579    0.2925 C.ar    1  UNL1        0.1035
     22 N          -6.0619   -2.1967    0.4356 N.ar    1  UNL1       -0.1907
     23 S          -4.7595   -3.2209    0.5076 S.2     1  UNL1        0.1165
     24 N          -3.5119   -2.1425    0.3610 N.ar    1  UNL1       -0.1885
     25 C          -4.0552   -0.9158    0.2473 C.ar    1  UNL1        0.1287
     26 H          -1.6097    2.7322   -0.2006 H       1  UNL1        0.0693
     27 H           1.4960   -2.7274    0.2872 H       1  UNL1        0.0626
     28 H           3.9721   -2.7800    0.2260 H       1  UNL1        0.0624
     29 H           6.1818   -1.5515    0.0377 H       1  UNL1        0.0639
     30 H           7.3583    0.6179   -0.2211 H       1  UNL1        0.0830
     31 H           3.8329    2.7435   -0.3486 H       1  UNL1        0.0837
     32 H          -6.0814    2.3321   -0.0381 H       1  UNL1        0.0830
     33 H          -7.4172    0.2135    0.2197 H       1  UNL1        0.0655
@<TRIPOS>BOND
     1     1     2   ar
     2     2     3   ar
     3     3     4   ar
     4     4     5   ar
     5     5     6   ar
     6     6     7   ar
     7     7     8   ar
     8     8     9   ar
     9     9    10   ar
    10    10    11   ar
    11    11    12   ar
    12    12    13   ar
    13    13    14   ar
    14    14    15   ar
    15    15    16   ar
    16     2    17    1
    17    17    18   ar
    18    18    19   ar
    19    19    20   ar
    20    20    21   ar
    21    21    22   ar
    22    22    23   ar
    23    23    24   ar
    24    24    25   ar
    25     5     1   ar
    26    16     7   ar
    27    25    17   ar
    28     8     4   ar
    29    16    11   ar
    30    25    21   ar
    31     1    26    1
    32     9    27    1
    33    10    28    1
    34    12    29    1
    35    13    30    1
    36    15    31    1
    37    19    32    1
    38    20    33    1
