@<TRIPOS>MOLECULE
*****
 32 36 0 0 0
SMALL
GASTEIGER

@<TRIPOS>ATOM
      1 C           1.5657   -0.0439    2.0590 C.ar    1  UNL1        0.0001
      2 C           2.2088    0.1060    0.8466 C.ar    1  UNL1        0.1549
      3 O           1.3126    0.1293   -0.1915 O.2     1  UNL1       -0.4521
      4 C           0.0825   -0.0085    0.3781 C.ar    1  UNL1        0.1505
      5 C           0.1929   -0.1146    1.7178 C.ar    1  UNL1        0.0591
      6 S          -1.3577   -0.2896    2.4505 S.2     1  UNL1       -0.0843
      7 C          -2.1440   -0.2134    0.8845 C.ar    1  UNL1        0.0327
      8 C          -1.2225   -0.0573   -0.1620 C.ar    1  UNL1        0.0328
      9 C          -1.6807    0.0228   -1.4939 C.ar    1  UNL1       -0.0494
     10 C          -3.0484   -0.0530   -1.7706 C.ar    1  UNL1       -0.0532
     11 C          -3.9806   -0.2083   -0.7423 C.ar    1  UNL1       -0.0139
     12 C          -5.3522   -0.2852   -1.0088 C.ar    1  UNL1       -0.0358
     13 C          -6.2336   -0.4394    0.0505 C.ar    1  UNL1        0.0281
     14 N          -5.8542   -0.5218    1.3421 N.ar    1  UNL1       -0.2626
     15 C          -4.5250   -0.4463    1.5895 C.ar    1  UNL1        0.0363
     16 C          -3.5450   -0.2908    0.5985 C.ar    1  UNL1        0.0146
     17 C           3.6194    0.2403    0.4726 C.ar    1  UNL1        0.1060
     18 C           4.6351    0.2329    1.4258 C.ar    1  UNL1       -0.0327
     19 C           5.9569    0.3649    1.0036 C.ar    1  UNL1       -0.0582
     20 C           6.2286    0.5000   -0.3517 C.ar    1  UNL1       -0.0436
     21 C           5.1622    0.4976   -1.2334 C.ar    1  UNL1        0.0284
     22 N           3.8730    0.3715   -0.8526 N.ar    1  UNL1       -0.2519
     23 H           2.0072   -0.0956    3.0425 H       1  UNL1        0.0667
     24 H          -0.9652    0.1438   -2.3048 H       1  UNL1        0.0625
     25 H          -3.3732    0.0117   -2.8075 H       1  UNL1        0.0624
     26 H          -5.7373   -0.2269   -2.0215 H       1  UNL1        0.0639
     27 H          -7.3047   -0.5026   -0.1207 H       1  UNL1        0.0830
     28 H          -4.2695   -0.5174    2.6428 H       1  UNL1        0.0836
     29 H           4.4182    0.1272    2.4825 H       1  UNL1        0.0640
     30 H           6.7667    0.3620    1.7278 H       1  UNL1        0.0619
     31 H           7.2454    0.6046   -0.7133 H       1  UNL1        0.0633
     32 H           5.3187    0.6001   -2.3035 H       1  UNL1        0.0830
@<TRIPOS>BOND
     1     1     2   ar
     2     2     3   ar
     3     3     4   ar
     4     4     5   ar
     5     5     6   ar
     6     6     7   ar
     7     7     8   ar
     8     8     9   ar
     9     9    10   ar
    10    10    11   ar
    11    11    12   ar
    12    12    13   ar
    13    13    14   ar
    14    14    15   ar
    15    15    16   ar
    16     2    17    1
    17    17    18   ar
    18    18    19   ar
    19    19    20   ar
    20    20    21   ar
    21    21    22   ar
    22     5     1   ar
    23    16     7   ar
    24    22    17   ar
    25     8     4   ar
    26    16    11   ar
    27     1    23    1
    28     9    24    1
    29    10    25    1
    30    12    26    1
    31    13    27    1
    32    15    28    1
    33    18    29    1
    34    19    30    1
    35    20    31    1
    36    21    32    1
