@<TRIPOS>MOLECULE
*****
 31 36 0 0 0
SMALL
GASTEIGER

@<TRIPOS>ATOM
      1 C           1.9457   -0.4939    2.0287 C.ar    1  UNL1        0.0017
      2 C           2.8161   -0.0897    1.0366 C.ar    1  UNL1        0.1737
      3 O           2.1475    0.2496   -0.1116 O.2     1  UNL1       -0.4490
      4 C           0.8250    0.0546    0.1638 C.ar    1  UNL1        0.1687
      5 C           0.6671   -0.3885    1.4308 C.ar    1  UNL1        0.0608
      6 S          -1.0032   -0.6414    1.7979 S.2     1  UNL1       -0.0827
      7 C          -1.4753   -0.1324    0.1953 C.ar    1  UNL1        0.0517
      8 C          -0.3617    0.2149   -0.5748 C.ar    1  UNL1        0.1214
      9 N          -0.3992    0.6480   -1.8562 N.ar    1  UNL1       -0.2501
     10 C          -1.6323    0.7360   -2.3929 C.ar    1  UNL1        0.0362
     11 C          -2.8310    0.4276   -1.7562 C.ar    1  UNL1        0.0035
     12 C          -4.0719    0.5642   -2.4373 C.ar    1  UNL1       -0.0504
     13 C          -5.3171    0.2709   -1.8557 C.ar    1  UNL1       -0.0329
     14 C          -5.2901   -0.1822   -0.5177 C.ar    1  UNL1        0.1005
     15 N          -6.3694   -0.5115    0.2073 N.ar    1  UNL1       -0.1908
     16 S          -5.8100   -0.9755    1.6972 S.2     1  UNL1        0.1165
     17 N          -4.1794   -0.7794    1.4879 N.ar    1  UNL1       -0.1901
     18 C          -3.9844   -0.3375    0.2330 C.ar    1  UNL1        0.1087
     19 C          -2.7478   -0.0253   -0.4062 C.ar    1  UNL1        0.0276
     20 C           4.2707    0.0338    1.0011 C.ar    1  UNL1        0.1986
     21 N           4.9162   -0.2986    2.1236 N.ar    1  UNL1       -0.2132
     22 C           6.2369   -0.1694    2.0413 C.ar    1  UNL1        0.1201
     23 N           6.9204    0.2451    0.9768 N.ar    1  UNL1       -0.2241
     24 C           6.1599    0.5445   -0.0746 C.ar    1  UNL1        0.1201
     25 N           4.8358    0.4616   -0.1292 N.ar    1  UNL1       -0.2132
     26 H           2.2019   -0.8142    3.0280 H       1  UNL1        0.0668
     27 H          -1.6270    1.0873   -3.4241 H       1  UNL1        0.0836
     28 H          -4.0750    0.9157   -3.4713 H       1  UNL1        0.0625
     29 H          -6.2494    0.3835   -2.3966 H       1  UNL1        0.0640
     30 H           6.8126   -0.4256    2.9243 H       1  UNL1        0.1048
     31 H           6.6683    0.8878   -0.9692 H       1  UNL1        0.1048
@<TRIPOS>BOND
     1     1     2   ar
     2     2     3   ar
     3     3     4   ar
     4     4     5   ar
     5     5     6   ar
     6     6     7   ar
     7     7     8   ar
     8     8     9   ar
     9     9    10   ar
    10    10    11   ar
    11    11    12   ar
    12    12    13   ar
    13    13    14   ar
    14    14    15   ar
    15    15    16   ar
    16    16    17   ar
    17    17    18   ar
    18    18    19   ar
    19     2    20    1
    20    20    21   ar
    21    21    22   ar
    22    22    23   ar
    23    23    24   ar
    24    24    25   ar
    25     5     1   ar
    26    19     7   ar
    27    25    20   ar
    28     8     4   ar
    29    19    11   ar
    30    18    14   ar
    31     1    26    1
    32    10    27    1
    33    12    28    1
    34    13    29    1
    35    22    30    1
    36    24    31    1
