@<TRIPOS>MOLECULE
*****
 31 35 0 0 0
SMALL
GASTEIGER

@<TRIPOS>ATOM
      1 C          -1.6564   -0.8223   -0.2307 C.ar    1  UNL1       -0.0044
      2 C          -0.7855    0.2423   -0.0322 C.ar    1  UNL1        0.1544
      3 O          -1.4983    1.4214    0.0651 O.2     1  UNL1       -0.4532
      4 C          -2.8231    1.1196   -0.0700 C.ar    1  UNL1        0.1379
      5 C          -3.8942    2.0193   -0.0344 C.ar    1  UNL1       -0.0166
      6 C          -5.1992    1.5113   -0.1942 C.ar    1  UNL1       -0.0300
      7 C          -5.3370    0.1116   -0.3816 C.ar    1  UNL1        0.1007
      8 N          -6.4917   -0.5610   -0.5512 N.ar    1  UNL1       -0.1908
      9 S          -6.0847   -2.1807   -0.7266 S.2     1  UNL1        0.1165
     10 N          -4.4109   -2.1034   -0.5944 N.ar    1  UNL1       -0.1901
     11 C          -4.2086   -0.8081   -0.4156 C.ar    1  UNL1        0.1106
     12 C          -2.9198   -0.2362   -0.2489 C.ar    1  UNL1        0.0489
     13 C           0.6677    0.3536    0.0882 C.ar    1  UNL1        0.1066
     14 C           1.4950   -0.7636    0.0071 C.ar    1  UNL1       -0.0249
     15 C           2.8827   -0.6024    0.1290 C.ar    1  UNL1       -0.0143
     16 C           3.7676   -1.6914    0.0557 C.ar    1  UNL1       -0.0539
     17 C           5.1454   -1.4994    0.1808 C.ar    1  UNL1       -0.0612
     18 C           5.6571   -0.2196    0.3804 C.ar    1  UNL1       -0.0611
     19 C           4.7922    0.8724    0.4556 C.ar    1  UNL1       -0.0526
     20 C           3.4035    0.6891    0.3308 C.ar    1  UNL1        0.0003
     21 C           2.4908    1.7417    0.3975 C.ar    1  UNL1        0.0361
     22 N           1.1503    1.6032    0.2819 N.ar    1  UNL1       -0.2513
     23 H          -1.3994   -1.8653   -0.3440 H       1  UNL1        0.0663
     24 H          -3.7177    3.0801    0.1129 H       1  UNL1        0.0655
     25 H          -6.0674    2.1605   -0.1754 H       1  UNL1        0.0641
     26 H           1.0743   -1.7512   -0.1489 H       1  UNL1        0.0646
     27 H           3.3903   -2.6999   -0.0998 H       1  UNL1        0.0624
     28 H           5.8192   -2.3507    0.1221 H       1  UNL1        0.0618
     29 H           6.7298   -0.0716    0.4776 H       1  UNL1        0.0618
     30 H           5.2056    1.8664    0.6118 H       1  UNL1        0.0624
     31 H           2.8223    2.7654    0.5515 H       1  UNL1        0.0836
@<TRIPOS>BOND
     1     1     2   ar
     2     2     3   ar
     3     3     4   ar
     4     4     5   ar
     5     5     6   ar
     6     6     7   ar
     7     7     8   ar
     8     8     9   ar
     9     9    10   ar
    10    10    11   ar
    11    11    12   ar
    12     2    13    1
    13    13    14   ar
    14    14    15   ar
    15    15    16   ar
    16    16    17   ar
    17    17    18   ar
    18    18    19   ar
    19    19    20   ar
    20    20    21   ar
    21    21    22   ar
    22    12     1   ar
    23    22    13   ar
    24    12     4   ar
    25    20    15   ar
    26    11     7   ar
    27     1    23    1
    28     5    24    1
    29     6    25    1
    30    14    26    1
    31    16    27    1
    32    17    28    1
    33    18    29    1
    34    19    30    1
    35    21    31    1
