@<TRIPOS>MOLECULE
*****
 35 41 0 0 0
SMALL
GASTEIGER

@<TRIPOS>ATOM
      1 C           1.4754    1.1032    0.8932 C.ar    1  UNL1       -0.0228
      2 C           2.3529    0.2188    0.2701 C.ar    1  UNL1        0.0255
      3 S           1.4932   -0.9950   -0.6224 S.2     1  UNL1       -0.0859
      4 C          -0.0269   -0.3317   -0.1707 C.ar    1  UNL1        0.0473
      5 C           0.1211    0.7696    0.6277 C.ar    1  UNL1        0.0554
      6 N          -1.1293    1.2655    0.9633 N.ar    1  UNL1       -0.3520
      7 C          -2.0954    0.4779    0.3768 C.ar    1  UNL1        0.0765
      8 C          -1.4083   -0.4899   -0.3100 C.ar    1  UNL1        0.0443
      9 C          -2.0568   -1.5044   -1.0548 C.ar    1  UNL1        0.1108
     10 N          -1.4474   -2.4594   -1.7338 N.ar    1  UNL1       -0.1901
     11 S          -2.7313   -3.3209   -2.3795 S.2     1  UNL1        0.1165
     12 N          -4.0314   -2.4503   -1.7741 N.ar    1  UNL1       -0.1901
     13 C          -3.5165   -1.4423   -1.0364 C.ar    1  UNL1        0.1098
     14 C          -4.2501   -0.4322   -0.3198 C.ar    1  UNL1        0.0306
     15 C          -5.6502   -0.3252   -0.2678 C.ar    1  UNL1       -0.0489
     16 C          -6.2224    0.7094    0.4693 C.ar    1  UNL1       -0.0429
     17 C          -5.3862    1.6032    1.1303 C.ar    1  UNL1        0.0284
     18 N          -4.0338    1.5441    1.1121 N.ar    1  UNL1       -0.2528
     19 C          -3.4967    0.5341    0.3920 C.ar    1  UNL1        0.0970
     20 C           3.8323    0.2492    0.3189 C.ar    1  UNL1        0.0350
     21 C           4.5429    1.2292    1.0402 C.ar    1  UNL1        0.0380
     22 N           5.9019    1.3916    1.1822 N.ar    1  UNL1       -0.2604
     23 C           6.7624    0.5318    0.5761 C.ar    1  UNL1        0.0557
     24 C           6.2203   -0.5154   -0.1907 C.ar    1  UNL1        0.1185
     25 N           6.9249   -1.4479   -0.8520 N.ar    1  UNL1       -0.1892
     26 S           5.8170   -2.4355   -1.5860 S.2     1  UNL1        0.1165
     27 N           4.4079   -1.7256   -1.0983 N.ar    1  UNL1       -0.1900
     28 C           4.7154   -0.6664   -0.3270 C.ar    1  UNL1        0.1110
     29 H           1.7690    1.9449    1.5066 H       1  UNL1        0.0650
     30 H          -1.2944    2.0764    1.5463 H       1  UNL1        0.1660
     31 H          -6.2789   -1.0386   -0.7947 H       1  UNL1        0.0625
     32 H          -7.3003    0.8184    0.5286 H       1  UNL1        0.0633
     33 H          -5.8025    2.4208    1.7135 H       1  UNL1        0.0830
     34 H           3.9989    1.9991    1.5869 H       1  UNL1        0.0836
     35 H           7.8233    0.6934    0.7123 H       1  UNL1        0.0852
@<TRIPOS>BOND
     1     1     2   ar
     2     2     3   ar
     3     3     4   ar
     4     4     5   ar
     5     5     6   ar
     6     6     7   ar
     7     7     8   ar
     8     8     9   ar
     9     9    10   ar
    10    10    11   ar
    11    11    12   ar
    12    12    13   ar
    13    13    14   ar
    14    14    15   ar
    15    15    16   ar
    16    16    17   ar
    17    17    18   ar
    18    18    19   ar
    19     2    20    1
    20    20    21   ar
    21    21    22   ar
    22    22    23   ar
    23    23    24   ar
    24    24    25   ar
    25    25    26   ar
    26    26    27   ar
    27    27    28   ar
    28     5     1   ar
    29    19     7   ar
    30    28    20   ar
    31     8     4   ar
    32    13     9   ar
    33    19    14   ar
    34    28    24   ar
    35     1    29    1
    36     6    30    1
    37    15    31    1
    38    16    32    1
    39    17    33    1
    40    21    34    1
    41    23    35    1
