@<TRIPOS>MOLECULE
*****
 44 51 0 0 0
SMALL
GASTEIGER

@<TRIPOS>ATOM
      1 C          -2.4455   -0.7611   -0.5490 C.ar    1  UNL1       -0.0385
      2 C          -2.8147    0.2807    0.2840 C.ar    1  UNL1        0.0241
      3 S          -1.4070    1.0471    0.8598 S.2     1  UNL1       -0.0875
      4 C          -0.3130    0.0093    0.0142 C.ar    1  UNL1        0.0282
      5 C          -1.0188   -0.9409   -0.7226 C.ar    1  UNL1       -0.0019
      6 C          -0.2767   -1.8938   -1.4933 C.ar    1  UNL1       -0.0090
      7 C          -0.9849   -2.8633   -2.2454 C.ar    1  UNL1       -0.0534
      8 C          -0.3177   -3.8140   -3.0127 C.ar    1  UNL1       -0.0611
      9 C           1.0659   -3.8151   -3.0440 C.ar    1  UNL1       -0.0611
     10 C           1.7803   -2.8655   -2.3078 C.ar    1  UNL1       -0.0534
     11 C           1.1441   -1.8770   -1.5112 C.ar    1  UNL1       -0.0095
     12 C           1.8475   -0.8938   -0.7482 C.ar    1  UNL1       -0.0085
     13 C           3.2686   -0.7947   -0.7009 C.ar    1  UNL1       -0.0456
     14 C           3.9645    0.1713    0.0487 C.ar    1  UNL1       -0.0151
     15 C           5.3883    0.2087    0.0470 C.ar    1  UNL1       -0.0519
     16 C           6.1572    1.1417    0.7689 C.ar    1  UNL1       -0.0329
     17 C           5.4340    2.0848    1.5314 C.ar    1  UNL1        0.1005
     18 N           5.9716    3.0543    2.2873 N.ar    1  UNL1       -0.1908
     19 S           4.7001    3.8774    2.9668 S.2     1  UNL1        0.1165
     20 N           3.4141    3.0423    2.3338 N.ar    1  UNL1       -0.1902
     21 C           3.9275    2.0725    1.5547 C.ar    1  UNL1        0.1076
     22 C           3.1967    1.0943    0.7963 C.ar    1  UNL1        0.0109
     23 C           1.7912    1.0321    0.7779 C.ar    1  UNL1       -0.0431
     24 C           1.1164    0.0502    0.0152 C.ar    1  UNL1       -0.0023
     25 C          -4.1755    0.7129    0.6560 C.ar    1  UNL1        0.0350
     26 C          -5.3331    0.0719    0.1738 C.ar    1  UNL1        0.0380
     27 N          -6.6546    0.3577    0.4290 N.ar    1  UNL1       -0.2604
     28 C          -6.9885    1.3873    1.2516 C.ar    1  UNL1        0.0557
     29 C          -5.9475    2.1399    1.8248 C.ar    1  UNL1        0.1185
     30 N          -6.0994    3.1842    2.6551 N.ar    1  UNL1       -0.1892
     31 S          -4.5738    3.7050    3.0340 S.2     1  UNL1        0.1165
     32 N          -3.6631    2.6340    2.1660 N.ar    1  UNL1       -0.1900
     33 C          -4.4999    1.7984    1.5227 C.ar    1  UNL1        0.1110
     34 H          -3.1693   -1.3989   -1.0380 H       1  UNL1        0.0635
     35 H          -2.0706   -2.8944   -2.2462 H       1  UNL1        0.0624
     36 H          -0.8794   -4.5493   -3.5826 H       1  UNL1        0.0618
     37 H           1.5978   -4.5528   -3.6397 H       1  UNL1        0.0618
     38 H           2.8629   -2.9209   -2.3754 H       1  UNL1        0.0624
     39 H           3.8703   -1.4985   -1.2713 H       1  UNL1        0.0630
     40 H           5.9335   -0.5271   -0.5475 H       1  UNL1        0.0624
     41 H           7.2401    1.1410    0.7446 H       1  UNL1        0.0640
     42 H           1.2388    1.7616    1.3675 H       1  UNL1        0.0631
     43 H          -5.2399   -0.7784   -0.5016 H       1  UNL1        0.0836
     44 H          -8.0388    1.5788    1.4263 H       1  UNL1        0.0852
@<TRIPOS>BOND
     1     1     2   ar
     2     2     3   ar
     3     3     4   ar
     4     4     5   ar
     5     5     6   ar
     6     6     7   ar
     7     7     8   ar
     8     8     9   ar
     9     9    10   ar
    10    10    11   ar
    11    11    12   ar
    12    12    13   ar
    13    13    14   ar
    14    14    15   ar
    15    15    16   ar
    16    16    17   ar
    17    17    18   ar
    18    18    19   ar
    19    19    20   ar
    20    20    21   ar
    21    21    22   ar
    22    22    23   ar
    23    23    24   ar
    24     2    25    1
    25    25    26   ar
    26    26    27   ar
    27    27    28   ar
    28    28    29   ar
    29    29    30   ar
    30    30    31   ar
    31    31    32   ar
    32    32    33   ar
    33     5     1   ar
    34    11     6   ar
    35    24    12   ar
    36    33    25   ar
    37    24     4   ar
    38    33    29   ar
    39    22    14   ar
    40    21    17   ar
    41     1    34    1
    42     7    35    1
    43     8    36    1
    44     9    37    1
    45    10    38    1
    46    13    39    1
    47    15    40    1
    48    16    41    1
    49    23    42    1
    50    26    43    1
    51    28    44    1
