@<TRIPOS>MOLECULE
*****
 47 53 0 0 0
SMALL
GASTEIGER

@<TRIPOS>ATOM
      1 SI          1.2773   -3.2372   -2.1824 Si      1  UNL1        0.0000
      2 C           2.4102   -2.0428   -1.3129 C.2     1  UNL1        0.0000
      3 C           1.7144   -1.0535   -0.7142 C.ar    1  UNL1        0.0000
      4 C           2.2832    0.1245   -0.0731 C.ar    1  UNL1        0.0000
      5 C           1.4161    1.0755    0.3370 C.ar    1  UNL1        0.0000
      6 C          -0.0603    0.9860    0.2337 C.ar    1  UNL1        0.0000
      7 C          -0.6467   -0.1951   -0.1459 C.ar    1  UNL1        0.0000
      8 C          -2.1194   -0.3513    0.0521 C.ar    1  UNL1        0.0000
      9 C          -2.8008   -1.5614    0.2837 C.ar    1  UNL1        0.0000
     10 C          -2.2886   -2.8045    0.5806 C.ar    1  UNL1        0.0000
     11 N          -3.3444   -3.6743    0.7524 N.ar    1  UNL1        0.0000
     12 C          -4.5369   -2.9972    0.6460 C.ar    1  UNL1        0.0000
     13 C          -4.2227   -1.6856    0.4001 C.ar    1  UNL1        0.0000
     14 C          -5.1435   -0.6547    0.3330 C.ar    1  UNL1        0.0000
     15 C          -4.4761    0.5859    0.2466 C.ar    1  UNL1        0.0000
     16 C          -3.0382    0.7454    0.1579 C.ar    1  UNL1        0.0000
     17 C          -2.4054    2.0719    0.3417 C.ar    1  UNL1        0.0000
     18 C          -3.0550    3.2481    0.4778 C.2     1  UNL1        0.0000
     19 SI         -1.8763    4.6411    0.8515 Si      1  UNL1        0.0000
     20 C          -0.4880    3.4031    0.7653 C.2     1  UNL1        0.0000
     21 C          -0.9306    2.1550    0.4915 C.ar    1  UNL1        0.0000
     22 C           0.2365   -1.1873   -0.8025 C.ar    1  UNL1        0.0000
     23 C          -0.1555   -2.2024   -1.6034 C.2     1  UNL1        0.0000
     24 C           3.7232    0.4011    0.1056 C.ar    1  UNL1        0.0000
     25 C           4.5647    0.5432   -0.9956 C.ar    1  UNL1        0.0000
     26 C           5.9108    0.8279   -0.7809 C.ar    1  UNL1        0.0000
     27 C           6.3759    0.9698    0.5206 C.ar    1  UNL1        0.0000
     28 C           5.4700    0.8264    1.5581 C.ar    1  UNL1        0.0000
     29 N           4.1593    0.5537    1.3808 N.ar    1  UNL1        0.0000
     30 H           1.2898   -4.5870   -1.5673 H       1  UNL1        0.0000
     31 H           1.4518   -3.2073   -3.6548 H       1  UNL1        0.0000
     32 H           3.4805   -2.1515   -1.3779 H       1  UNL1        0.0000
     33 H           1.8136    1.9670    0.8137 H       1  UNL1        0.0000
     34 H          -1.2763   -3.1623    0.7060 H       1  UNL1        0.0000
     35 H          -3.2520   -4.6567    0.9757 H       1  UNL1        0.0000
     36 H          -5.4791   -3.5061    0.7964 H       1  UNL1        0.0000
     37 H          -6.2147   -0.7514    0.4315 H       1  UNL1        0.0000
     38 H          -5.1042    1.4735    0.2963 H       1  UNL1        0.0000
     39 H          -4.1138    3.4384    0.4372 H       1  UNL1        0.0000
     40 H          -2.0666    5.1968    2.2130 H       1  UNL1        0.0000
     41 H          -1.8167    5.6426   -0.2405 H       1  UNL1        0.0000
     42 H           0.5288    3.7390    0.8799 H       1  UNL1        0.0000
     43 H          -1.1620   -2.4533   -1.8970 H       1  UNL1        0.0000
     44 H           4.1794    0.4423   -2.0050 H       1  UNL1        0.0000
     45 H           6.5876    0.9416   -1.6226 H       1  UNL1        0.0000
     46 H           7.4177    1.1911    0.7228 H       1  UNL1        0.0000
     47 H           5.7828    0.9318    2.5930 H       1  UNL1        0.0000
@<TRIPOS>BOND
     1     1     2    1
     2     2     3    2
     3     3     4   ar
     4     4     5   ar
     5     5     6   ar
     6     6     7   ar
     7     7     8   ar
     8     8     9   ar
     9     9    10   ar
    10    10    11   ar
    11    11    12   ar
    12    12    13   ar
    13    13    14   ar
    14    14    15   ar
    15    15    16   ar
    16    16    17   ar
    17    17    18    2
    18    18    19    1
    19    19    20    1
    20    20    21    2
    21     7    22   ar
    22    22    23    2
    23     4    24    1
    24    24    25   ar
    25    25    26   ar
    26    26    27   ar
    27    27    28   ar
    28    28    29   ar
    29    23     1    1
    30    29    24   ar
    31    22     3   ar
    32    21     6   ar
    33    16     8   ar
    34    21    17   ar
    35    13     9   ar
    36     1    30    1
    37     1    31    1
    38     2    32    1
    39     5    33    1
    40    10    34    1
    41    11    35    1
    42    12    36    1
    43    14    37    1
    44    15    38    1
    45    18    39    1
    46    19    40    1
    47    19    41    1
    48    20    42    1
    49    23    43    1
    50    25    44    1
    51    26    45    1
    52    27    46    1
    53    28    47    1
