@<TRIPOS>MOLECULE
*****
 35 40 0 0 0
SMALL
GASTEIGER

@<TRIPOS>ATOM
      1 C           1.8778    1.1879   -0.8221 C.ar    1  UNL1       -0.0377
      2 C           2.4799    0.1431   -0.1254 C.ar    1  UNL1        0.0206
      3 S           1.2583   -0.8907    0.5317 S.2     1  UNL1       -0.0861
      4 C           0.0236    0.0489   -0.1072 C.ar    1  UNL1        0.0467
      5 C           0.4437    1.1457   -0.8199 C.ar    1  UNL1        0.0099
      6 C          -0.5452    1.9748   -1.3818 C.ar    1  UNL1        0.0366
      7 N          -1.8832    1.7695   -1.2708 N.ar    1  UNL1       -0.2521
      8 C          -2.3413    0.7033   -0.5789 C.ar    1  UNL1        0.0994
      9 C          -1.4845   -0.1890    0.0222 C.ar    1  UNL1        0.0806
     10 N          -2.1804   -1.1755    0.6575 N.ar    1  UNL1       -0.3520
     11 C          -3.5365   -0.9536    0.4878 C.ar    1  UNL1        0.0512
     12 C          -4.6543   -1.6752    0.9417 C.ar    1  UNL1       -0.0356
     13 C          -5.9452   -1.2191    0.6193 C.ar    1  UNL1       -0.0315
     14 C          -6.0476   -0.0399   -0.1568 C.ar    1  UNL1        0.1007
     15 N          -7.1962    0.5401   -0.5581 N.ar    1  UNL1       -0.1908
     16 S          -6.7620    1.8979   -1.4418 S.2     1  UNL1        0.1165
     17 N          -5.0929    1.8075   -1.3528 N.ar    1  UNL1       -0.1900
     18 C          -4.8983    0.7153   -0.6322 C.ar    1  UNL1        0.1110
     19 C          -3.6115    0.2062   -0.2751 C.ar    1  UNL1        0.0538
     20 C           3.9244   -0.1336    0.0820 C.ar    1  UNL1       -0.0113
     21 C           4.8959    0.7249   -0.4643 C.ar    1  UNL1       -0.0535
     22 C           6.2646    0.4907   -0.2861 C.ar    1  UNL1       -0.0612
     23 C           6.6949   -0.6106    0.4444 C.ar    1  UNL1       -0.0617
     24 C           5.7574   -1.4761    0.9959 C.ar    1  UNL1       -0.0612
     25 C           4.3890   -1.2397    0.8163 C.ar    1  UNL1       -0.0535
     26 H           2.4334    1.9689   -1.3250 H       1  UNL1        0.0635
     27 H          -0.2726    2.8565   -1.9558 H       1  UNL1        0.0836
     28 H          -1.7701   -1.9445    1.1697 H       1  UNL1        0.1660
     29 H          -4.5331   -2.5776    1.5363 H       1  UNL1        0.0639
     30 H          -6.8335   -1.7459    0.9493 H       1  UNL1        0.0640
     31 H           4.6109    1.5989   -1.0431 H       1  UNL1        0.0624
     32 H           6.9917    1.1722   -0.7206 H       1  UNL1        0.0618
     33 H           7.7570   -0.7939    0.5837 H       1  UNL1        0.0618
     34 H           6.0860   -2.3398    1.5686 H       1  UNL1        0.0618
     35 H           3.7000   -1.9478    1.2688 H       1  UNL1        0.0624
@<TRIPOS>BOND
     1     1     2   ar
     2     2     3   ar
     3     3     4   ar
     4     4     5   ar
     5     5     6   ar
     6     6     7   ar
     7     7     8   ar
     8     8     9   ar
     9     9    10   ar
    10    10    11   ar
    11    11    12   ar
    12    12    13   ar
    13    13    14   ar
    14    14    15   ar
    15    15    16   ar
    16    16    17   ar
    17    17    18   ar
    18    18    19   ar
    19     2    20    1
    20    20    21   ar
    21    21    22   ar
    22    22    23   ar
    23    23    24   ar
    24    24    25   ar
    25     5     1   ar
    26    19     8   ar
    27    25    20   ar
    28     9     4   ar
    29    19    11   ar
    30    18    14   ar
    31     1    26    1
    32     6    27    1
    33    10    28    1
    34    12    29    1
    35    13    30    1
    36    21    31    1
    37    22    32    1
    38    23    33    1
    39    24    34    1
    40    25    35    1
