@<TRIPOS>MOLECULE
*****
 32 36 0 0 0
SMALL
GASTEIGER

@<TRIPOS>ATOM
      1 C          -2.2790   -0.9827    0.3871 C.ar    1  UNL1       -0.0361
      2 C          -3.0523   -0.1320   -0.3836 C.ar    1  UNL1        0.0575
      3 S          -2.0639    1.0357   -1.1558 S.2     1  UNL1       -0.0851
      4 C          -0.6185    0.4114   -0.4679 C.ar    1  UNL1        0.0207
      5 C           0.6863    0.8843   -0.6546 C.ar    1  UNL1       -0.0377
      6 C           1.7684    0.2624   -0.0193 C.ar    1  UNL1        0.0085
      7 C           1.5044   -0.8312    0.7961 C.ar    1  UNL1        0.0481
      8 C           0.2120   -1.3094    0.9887 C.ar    1  UNL1       -0.0295
      9 C          -0.8767   -0.6859    0.3512 C.ar    1  UNL1       -0.0082
     10 N           2.7068   -1.2635    1.3005 N.ar    1  UNL1       -0.3541
     11 C           3.7413   -0.4842    0.8374 C.ar    1  UNL1        0.0475
     12 C           5.1159   -0.5636    1.0908 C.ar    1  UNL1       -0.0378
     13 C           5.9432    0.3783    0.4721 C.ar    1  UNL1       -0.0598
     14 C           5.4151    1.3583   -0.3651 C.ar    1  UNL1       -0.0611
     15 C           4.0380    1.4229   -0.6073 C.ar    1  UNL1       -0.0520
     16 C           3.1814    0.4845    0.0046 C.ar    1  UNL1        0.0074
     17 C          -4.5074   -0.1470   -0.5746 C.ar    1  UNL1        0.1695
     18 N          -5.1745   -1.1041    0.0782 N.ar    1  UNL1       -0.2155
     19 C          -6.4887   -1.0821   -0.1221 C.ar    1  UNL1        0.1201
     20 N          -7.1514   -0.2184   -0.8874 N.ar    1  UNL1       -0.2241
     21 C          -6.3749    0.6840   -1.4824 C.ar    1  UNL1        0.1201
     22 N          -5.0541    0.7753   -1.3695 N.ar    1  UNL1       -0.2155
     23 H          -2.7050   -1.7968    0.9621 H       1  UNL1        0.0636
     24 H           0.8638    1.7421   -1.2983 H       1  UNL1        0.0636
     25 H           0.0340   -2.1673    1.6324 H       1  UNL1        0.0644
     26 H           2.8185   -2.0470    1.9267 H       1  UNL1        0.1659
     27 H           5.5316   -1.3253    1.7423 H       1  UNL1        0.0638
     28 H           7.0161    0.3446    0.6479 H       1  UNL1        0.0618
     29 H           6.0767    2.0811   -0.8361 H       1  UNL1        0.0618
     30 H           3.6349    2.1903   -1.2614 H       1  UNL1        0.0624
     31 H          -7.0765   -1.8392    0.3860 H       1  UNL1        0.1048
     32 H          -6.8655    1.4128   -2.1187 H       1  UNL1        0.1048
@<TRIPOS>BOND
     1     1     2   ar
     2     2     3   ar
     3     3     4   ar
     4     4     5   ar
     5     5     6   ar
     6     6     7   ar
     7     7     8   ar
     8     8     9   ar
     9     7    10   ar
    10    10    11   ar
    11    11    12   ar
    12    12    13   ar
    13    13    14   ar
    14    14    15   ar
    15    15    16   ar
    16     2    17    1
    17    17    18   ar
    18    18    19   ar
    19    19    20   ar
    20    20    21   ar
    21    21    22   ar
    22     9     1   ar
    23    16    11   ar
    24    22    17   ar
    25     9     4   ar
    26    16     6   ar
    27     1    23    1
    28     5    24    1
    29     8    25    1
    30    10    26    1
    31    12    27    1
    32    13    28    1
    33    14    29    1
    34    15    30    1
    35    19    31    1
    36    21    32    1
