@<TRIPOS>MOLECULE
*****
 34 38 0 0 0
SMALL
GASTEIGER

@<TRIPOS>ATOM
      1 C          -1.5756   -0.9547    0.1016 C.ar    1  UNL1       -0.0391
      2 C          -2.3852    0.1686    0.1666 C.ar    1  UNL1        0.0205
      3 S          -1.4033    1.5785    0.2195 S.2     1  UNL1       -0.0882
      4 C           0.0662    0.6984    0.1567 C.ar    1  UNL1        0.0207
      5 C           1.3685    1.2107    0.1624 C.ar    1  UNL1       -0.0362
      6 C           2.4719    0.3516    0.1058 C.ar    1  UNL1        0.0267
      7 C           2.2346   -1.0178    0.0442 C.ar    1  UNL1        0.0496
      8 C           0.9432   -1.5361    0.0379 C.ar    1  UNL1       -0.0295
      9 C          -0.1677   -0.6722    0.0949 C.ar    1  UNL1       -0.0082
     10 N           3.4587   -1.6450   -0.0032 N.ar    1  UNL1       -0.3529
     11 C           4.4772   -0.7235    0.0261 C.ar    1  UNL1        0.0660
     12 C           5.8633   -0.8751   -0.0009 C.ar    1  UNL1       -0.0348
     13 C           6.6025    0.3039    0.0446 C.ar    1  UNL1       -0.0416
     14 C           5.9387    1.5217    0.1119 C.ar    1  UNL1        0.0284
     15 N           4.5998    1.6870    0.1389 N.ar    1  UNL1       -0.2528
     16 C           3.8835    0.5345    0.0944 C.ar    1  UNL1        0.0962
     17 C          -3.8684    0.2525    0.1918 C.ar    1  UNL1       -0.0113
     18 C          -4.5593    1.4760    0.2595 C.ar    1  UNL1       -0.0535
     19 C          -5.9585    1.5264    0.2820 C.ar    1  UNL1       -0.0612
     20 C          -6.7013    0.3523    0.2370 C.ar    1  UNL1       -0.0617
     21 C          -6.0455   -0.8714    0.1697 C.ar    1  UNL1       -0.0612
     22 C          -4.6465   -0.9189    0.1474 C.ar    1  UNL1       -0.0535
     23 H          -1.9597   -1.9653    0.0590 H       1  UNL1        0.0635
     24 H           1.5362    2.2843    0.2111 H       1  UNL1        0.0636
     25 H           0.7815   -2.6100   -0.0108 H       1  UNL1        0.0644
     26 H           3.5893   -2.6449   -0.0525 H       1  UNL1        0.1660
     27 H           6.3406   -1.8465   -0.0539 H       1  UNL1        0.0639
     28 H           7.6871    0.2757    0.0277 H       1  UNL1        0.0633
     29 H           6.5057    2.4491    0.1479 H       1  UNL1        0.0830
     30 H          -4.0275    2.4233    0.2968 H       1  UNL1        0.0624
     31 H          -6.4629    2.4880    0.3347 H       1  UNL1        0.0618
     32 H          -7.7871    0.3915    0.2544 H       1  UNL1        0.0618
     33 H          -6.6193   -1.7940    0.1342 H       1  UNL1        0.0618
     34 H          -4.1809   -1.8988    0.0943 H       1  UNL1        0.0624
@<TRIPOS>BOND
     1     1     2   ar
     2     2     3   ar
     3     3     4   ar
     4     4     5   ar
     5     5     6   ar
     6     6     7   ar
     7     7     8   ar
     8     8     9   ar
     9     7    10   ar
    10    10    11   ar
    11    11    12   ar
    12    12    13   ar
    13    13    14   ar
    14    14    15   ar
    15    15    16   ar
    16     2    17    1
    17    17    18   ar
    18    18    19   ar
    19    19    20   ar
    20    20    21   ar
    21    21    22   ar
    22     9     1   ar
    23    16    11   ar
    24    22    17   ar
    25     9     4   ar
    26    16     6   ar
    27     1    23    1
    28     5    24    1
    29     8    25    1
    30    10    26    1
    31    12    27    1
    32    13    28    1
    33    14    29    1
    34    18    30    1
    35    19    31    1
    36    20    32    1
    37    21    33    1
    38    22    34    1
