@<TRIPOS>MOLECULE
*****
 41 47 0 0 0
SMALL
GASTEIGER

@<TRIPOS>ATOM
      1 C           6.5891   -1.6253   -0.7005 C.ar    1  UNL1       -0.0437
      2 C           6.9616   -0.6049    0.1441 C.ar    1  UNL1        0.0023
      3 N           5.8212    0.0247    0.5733 N.ar    1  UNL1       -0.3583
      4 C           4.7174   -0.5762    0.0173 C.ar    1  UNL1        0.0821
      5 C           5.1755   -1.6073   -0.7808 C.ar    1  UNL1       -0.0334
      6 C           3.3693   -0.1597    0.2616 C.ar    1  UNL1        0.1523
      7 C           2.9004    0.8711    1.0716 C.ar    1  UNL1       -0.0059
      8 C           1.5204    0.8234    0.9296 C.ar    1  UNL1        0.0321
      9 C           0.4714    1.5433    1.5237 C.ar    1  UNL1        0.0312
     10 C           0.5088    2.4997    2.4852 C.ar    1  UNL1        0.1001
     11 O          -0.7895    2.7722    2.8244 O.2     1  UNL1       -0.4698
     12 C          -1.5954    1.9697    2.0525 C.ar    1  UNL1        0.1000
     13 C          -0.8543    1.2292    1.1554 C.ar    1  UNL1        0.0289
     14 C          -1.3173    0.2561    0.2069 C.ar    1  UNL1        0.0047
     15 C          -0.2003   -0.5174   -0.2563 C.ar    1  UNL1        0.0263
     16 C          -0.4006   -1.6563   -1.0443 C.ar    1  UNL1       -0.0499
     17 C          -1.6929   -2.0720   -1.3689 C.ar    1  UNL1       -0.0533
     18 C          -2.8271   -1.3299   -1.0184 C.ar    1  UNL1       -0.0166
     19 C          -4.1056   -1.8456   -1.4282 C.ar    1  UNL1       -0.0534
     20 C          -5.3412   -1.1998   -1.2422 C.ar    1  UNL1       -0.0529
     21 C          -5.1652    0.0552   -0.6805 C.ar    1  UNL1       -0.0103
     22 C          -6.2236    0.9169   -0.5247 C.ar    1  UNL1       -0.0166
     23 S          -5.6935    2.4476    0.0321 S.2     1  UNL1       -0.1039
     24 C          -4.0500    1.9426    0.0461 C.ar    1  UNL1       -0.0160
     25 C          -3.9020    0.6046   -0.2411 C.ar    1  UNL1       -0.0026
     26 C          -2.6464   -0.0941   -0.2936 C.ar    1  UNL1       -0.0012
     27 C           1.1438   -0.1884    0.0845 C.ar    1  UNL1        0.1441
     28 O           2.2974   -0.8043   -0.3285 O.2     1  UNL1       -0.4527
     29 H           7.2598   -2.3089   -1.2050 H       1  UNL1        0.0633
     30 H           7.9362   -0.2727    0.4759 H       1  UNL1        0.0807
     31 H           5.8000    0.8135    1.2043 H       1  UNL1        0.1654
     32 H           4.5515   -2.2762   -1.3603 H       1  UNL1        0.0640
     33 H           3.4936    1.5404    1.6755 H       1  UNL1        0.0662
     34 H           1.2691    3.0262    3.0428 H       1  UNL1        0.1036
     35 H          -2.6438    2.0386    2.3029 H       1  UNL1        0.1036
     36 H           0.4440   -2.2571   -1.3782 H       1  UNL1        0.0625
     37 H          -1.7960   -2.9932   -1.9419 H       1  UNL1        0.0624
     38 H          -4.1366   -2.8116   -1.9377 H       1  UNL1        0.0624
     39 H          -6.2802   -1.6191   -1.5774 H       1  UNL1        0.0624
     40 H          -7.2701    0.7546   -0.7441 H       1  UNL1        0.0699
     41 H          -3.2990    2.6905    0.2449 H       1  UNL1        0.0700
@<TRIPOS>BOND
     1     1     2   ar
     2     2     3   ar
     3     3     4   ar
     4     4     5   ar
     5     4     6    1
     6     6     7   ar
     7     7     8   ar
     8     8     9   ar
     9     9    10   ar
    10    10    11   ar
    11    11    12   ar
    12    12    13   ar
    13    13    14   ar
    14    14    15   ar
    15    15    16   ar
    16    16    17   ar
    17    17    18   ar
    18    18    19   ar
    19    19    20   ar
    20    20    21   ar
    21    21    22   ar
    22    22    23   ar
    23    23    24   ar
    24    24    25   ar
    25    25    26   ar
    26    15    27   ar
    27    27    28   ar
    28     5     1   ar
    29    28     6   ar
    30    27     8   ar
    31    13     9   ar
    32    26    14   ar
    33    26    18   ar
    34    25    21   ar
    35     1    29    1
    36     2    30    1
    37     3    31    1
    38     5    32    1
    39     7    33    1
    40    10    34    1
    41    12    35    1
    42    16    36    1
    43    17    37    1
    44    19    38    1
    45    20    39    1
    46    22    40    1
    47    24    41    1
