@<TRIPOS>MOLECULE
*****
 43 49 0 0 0
SMALL
GASTEIGER

@<TRIPOS>ATOM
      1 C           6.7103   -0.5782   -0.2871 C.ar    1  UNL1       -0.0438
      2 C           6.1407   -1.8225   -0.1573 C.ar    1  UNL1        0.0022
      3 N           4.7807   -1.6584   -0.0942 N.ar    1  UNL1       -0.3595
      4 C           4.4589   -0.3234   -0.1814 C.ar    1  UNL1        0.0629
      5 C           5.6537    0.3643   -0.3023 C.ar    1  UNL1       -0.0350
      6 C           3.1223    0.1949   -0.1475 C.ar    1  UNL1        0.0639
      7 C           2.7050    1.5114   -0.2279 C.ar    1  UNL1       -0.0265
      8 C           1.3180    1.4540   -0.1458 C.ar    1  UNL1        0.0116
      9 C           0.3716    2.4892   -0.1745 C.ar    1  UNL1        0.0296
     10 C           0.5947    3.8224   -0.2919 C.ar    1  UNL1        0.1000
     11 O          -0.6251    4.4310   -0.2717 O.2     1  UNL1       -0.4698
     12 C          -1.5719    3.4427   -0.1409 C.ar    1  UNL1        0.1000
     13 C          -1.0020    2.1848   -0.0738 C.ar    1  UNL1        0.0288
     14 C          -1.6340    0.8975    0.0629 C.ar    1  UNL1        0.0032
     15 C          -3.1040    0.5639    0.1713 C.ar    1  UNL1       -0.0088
     16 C          -4.1704    1.4988    0.1572 C.ar    1  UNL1       -0.0534
     17 C          -5.5285    1.1489    0.2607 C.ar    1  UNL1       -0.0611
     18 C          -5.9056   -0.1764    0.3862 C.ar    1  UNL1       -0.0611
     19 C          -4.9228   -1.1520    0.4081 C.ar    1  UNL1       -0.0534
     20 C          -3.5537   -0.7900    0.3031 C.ar    1  UNL1       -0.0081
     21 C          -2.4964   -1.7241    0.3176 C.ar    1  UNL1        0.0078
     22 C          -2.6331   -3.0889    0.4328 C.ar    1  UNL1        0.0100
     23 N          -1.3750   -3.6302    0.4051 N.ar    1  UNL1       -0.3659
     24 C          -0.4371   -2.6287    0.2738 C.ar    1  UNL1        0.0101
     25 C          -1.1006   -1.4215    0.2158 C.ar    1  UNL1        0.0097
     26 C          -0.5656   -0.1252    0.0838 C.ar    1  UNL1        0.0164
     27 C           0.8309    0.1704   -0.0175 C.ar    1  UNL1        0.0561
     28 N           1.9867   -0.5881   -0.0224 N.ar    1  UNL1       -0.3525
     29 H           7.7693   -0.3683   -0.3628 H       1  UNL1        0.0633
     30 H           6.5834   -2.8081   -0.1044 H       1  UNL1        0.0807
     31 H           4.1220   -2.4162    0.0022 H       1  UNL1        0.1654
     32 H           5.7583    1.4377   -0.3926 H       1  UNL1        0.0639
     33 H           3.3399    2.3803   -0.3318 H       1  UNL1        0.0645
     34 H           1.4547    4.4680   -0.3908 H       1  UNL1        0.1036
     35 H          -2.5685    3.8471   -0.1171 H       1  UNL1        0.1036
     36 H          -3.9854    2.5568    0.0635 H       1  UNL1        0.0624
     37 H          -6.2865    1.9286    0.2416 H       1  UNL1        0.0618
     38 H          -6.9540   -0.4474    0.4661 H       1  UNL1        0.0618
     39 H          -5.2199   -2.1914    0.5066 H       1  UNL1        0.0624
     40 H          -3.4971   -3.7310    0.5316 H       1  UNL1        0.0813
     41 H          -1.1670   -4.6184    0.4714 H       1  UNL1        0.1648
     42 H           0.5981   -2.9166    0.2387 H       1  UNL1        0.0813
     43 H           2.0051   -1.5877    0.0553 H       1  UNL1        0.1660
@<TRIPOS>BOND
     1     1     2   ar
     2     2     3   ar
     3     3     4   ar
     4     4     5   ar
     5     4     6    1
     6     6     7   ar
     7     7     8   ar
     8     8     9   ar
     9     9    10   ar
    10    10    11   ar
    11    11    12   ar
    12    12    13   ar
    13    13    14   ar
    14    14    15   ar
    15    15    16   ar
    16    16    17   ar
    17    17    18   ar
    18    18    19   ar
    19    19    20   ar
    20    20    21   ar
    21    21    22   ar
    22    22    23   ar
    23    23    24   ar
    24    24    25   ar
    25    25    26   ar
    26    26    27   ar
    27    27    28   ar
    28     5     1   ar
    29    28     6   ar
    30    27     8   ar
    31    13     9   ar
    32    26    14   ar
    33    20    15   ar
    34    25    21   ar
    35     1    29    1
    36     2    30    1
    37     3    31    1
    38     5    32    1
    39     7    33    1
    40    10    34    1
    41    12    35    1
    42    16    36    1
    43    17    37    1
    44    18    38    1
    45    19    39    1
    46    22    40    1
    47    23    41    1
    48    24    42    1
    49    28    43    1
