@<TRIPOS>MOLECULE
*****
 38 44 0 0 0
SMALL
GASTEIGER

@<TRIPOS>ATOM
      1 C           6.5713    1.3689    0.0605 C.ar    1  UNL1       -0.0437
      2 C           6.8815    0.0878   -0.3341 C.ar    1  UNL1        0.0023
      3 N           5.7070   -0.6067   -0.4740 N.ar    1  UNL1       -0.3583
      4 C           4.6427    0.2100   -0.1747 C.ar    1  UNL1        0.0821
      5 C           5.1609    1.4463    0.1611 C.ar    1  UNL1       -0.0334
      6 C           3.2752   -0.2090   -0.2227 C.ar    1  UNL1        0.1524
      7 C           2.7466   -1.4505   -0.5590 C.ar    1  UNL1       -0.0045
      8 C           1.3681   -1.2929   -0.4368 C.ar    1  UNL1        0.0496
      9 C           0.3074   -2.1992   -0.6452 C.ar    1  UNL1        0.1112
     10 N           0.5332   -3.4471   -1.0247 N.ar    1  UNL1       -0.1900
     11 S          -1.0142   -4.0708   -1.1232 S.2     1  UNL1        0.1165
     12 N          -1.9062   -2.7321   -0.6803 N.ar    1  UNL1       -0.1901
     13 C          -1.0595   -1.7152   -0.4277 C.ar    1  UNL1        0.1091
     14 C          -1.3984   -0.3605   -0.0105 C.ar    1  UNL1        0.0251
     15 C          -0.2467    0.4568    0.1667 C.ar    1  UNL1        0.0459
     16 C          -0.3975    1.7778    0.5636 C.ar    1  UNL1        0.0396
     17 N          -1.5891    2.3619    0.8009 N.ar    1  UNL1       -0.2542
     18 C          -2.7113    1.6540    0.6543 C.ar    1  UNL1        0.0723
     19 C          -3.8937    2.3930    0.9367 C.ar    1  UNL1       -0.0350
     20 C          -5.2184    1.9182    0.8697 C.ar    1  UNL1       -0.0490
     21 C          -5.2062    0.5973    0.4804 C.ar    1  UNL1        0.0206
     22 C          -6.3162   -0.1830    0.3118 C.ar    1  UNL1        0.0994
     23 O          -5.9288   -1.4287   -0.0760 O.2     1  UNL1       -0.4698
     24 C          -4.5614   -1.4295   -0.1513 C.ar    1  UNL1        0.1000
     25 C          -4.0531   -0.1982    0.1831 C.ar    1  UNL1        0.0297
     26 C          -2.6946    0.2661    0.2451 C.ar    1  UNL1        0.0210
     27 C           1.0599   -0.0230   -0.0463 C.ar    1  UNL1        0.1471
     28 O           2.2416    0.6550    0.0883 O.2     1  UNL1       -0.4526
     29 H           7.2811    2.1626    0.2553 H       1  UNL1        0.0633
     30 H           7.8332   -0.3891   -0.5272 H       1  UNL1        0.0807
     31 H           5.6390   -1.5750   -0.7557 H       1  UNL1        0.1654
     32 H           4.5805    2.3140    0.4489 H       1  UNL1        0.0640
     33 H           3.2927   -2.3361   -0.8495 H       1  UNL1        0.0663
     34 H           0.4584    2.4341    0.7097 H       1  UNL1        0.0837
     35 H          -3.7589    3.4357    1.2360 H       1  UNL1        0.0639
     36 H          -6.0856    2.5213    1.0948 H       1  UNL1        0.0625
     37 H          -7.3816   -0.0331    0.4144 H       1  UNL1        0.1035
     38 H          -4.1592   -2.3809   -0.4533 H       1  UNL1        0.1036
@<TRIPOS>BOND
     1     1     2   ar
     2     2     3   ar
     3     3     4   ar
     4     4     5   ar
     5     4     6    1
     6     6     7   ar
     7     7     8   ar
     8     8     9   ar
     9     9    10   ar
    10    10    11   ar
    11    11    12   ar
    12    12    13   ar
    13    13    14   ar
    14    14    15   ar
    15    15    16   ar
    16    16    17   ar
    17    17    18   ar
    18    18    19   ar
    19    19    20   ar
    20    20    21   ar
    21    21    22   ar
    22    22    23   ar
    23    23    24   ar
    24    24    25   ar
    25    25    26   ar
    26    15    27   ar
    27    27    28   ar
    28     5     1   ar
    29    28     6   ar
    30    27     8   ar
    31    13     9   ar
    32    26    14   ar
    33    26    18   ar
    34    25    21   ar
    35     1    29    1
    36     2    30    1
    37     3    31    1
    38     5    32    1
    39     7    33    1
    40    16    34    1
    41    19    35    1
    42    20    36    1
    43    22    37    1
    44    24    38    1
