@<TRIPOS>MOLECULE
*****
 38 44 0 0 0
SMALL
GASTEIGER

@<TRIPOS>ATOM
      1 C           6.0314   -0.1453   -1.5677 C.ar    1  UNL1       -0.0437
      2 C           6.4733   -0.1075   -0.2651 C.ar    1  UNL1        0.0023
      3 N           5.3730   -0.0628    0.5526 N.ar    1  UNL1       -0.3583
      4 C           4.2266   -0.0713   -0.2057 C.ar    1  UNL1        0.0821
      5 C           4.6159   -0.1225   -1.5306 C.ar    1  UNL1       -0.0334
      6 C           2.9055   -0.0325    0.3430 C.ar    1  UNL1        0.1524
      7 C           2.5069    0.0191    1.6739 C.ar    1  UNL1       -0.0045
      8 C           1.1141    0.0387    1.6274 C.ar    1  UNL1        0.0496
      9 C           0.1571    0.0889    2.6688 C.ar    1  UNL1        0.1113
     10 N           0.5270    0.1267    3.9399 N.ar    1  UNL1       -0.1900
     11 S          -0.9452    0.1762    4.7342 S.2     1  UNL1        0.1165
     12 N          -1.9907    0.1478    3.4376 N.ar    1  UNL1       -0.1901
     13 C          -1.2613    0.0978    2.3008 C.ar    1  UNL1        0.1104
     14 C          -1.7474    0.0586    0.9353 C.ar    1  UNL1        0.0404
     15 C          -3.1678    0.0683    0.5874 C.ar    1  UNL1        0.0816
     16 N          -4.1250    0.1153    1.5363 N.ar    1  UNL1       -0.2543
     17 C          -5.4369    0.1236    1.1960 C.ar    1  UNL1        0.0283
     18 C          -5.9050    0.0864   -0.1013 C.ar    1  UNL1       -0.0430
     19 C          -4.9690    0.0374   -1.1176 C.ar    1  UNL1       -0.0504
     20 C          -3.5990    0.0281   -0.7779 C.ar    1  UNL1        0.0118
     21 C          -2.5290   -0.0195   -1.6964 C.ar    1  UNL1        0.0297
     22 C          -2.5852   -0.0655   -3.0660 C.ar    1  UNL1        0.1000
     23 O          -1.3189   -0.1023   -3.5779 O.2     1  UNL1       -0.4698
     24 C          -0.4498   -0.0794   -2.5231 C.ar    1  UNL1        0.1001
     25 C          -1.1516   -0.0285   -1.3454 C.ar    1  UNL1        0.0318
     26 C          -0.6686    0.0088   -0.0403 C.ar    1  UNL1        0.0400
     27 C           0.6765    0.0011    0.3336 C.ar    1  UNL1        0.1464
     28 O           1.7851   -0.0431   -0.4659 O.2     1  UNL1       -0.4526
     29 H           6.6578   -0.1850   -2.4495 H       1  UNL1        0.0633
     30 H           7.4722   -0.1085    0.1503 H       1  UNL1        0.0807
     31 H           5.4045   -0.0288    1.5623 H       1  UNL1        0.1654
     32 H           3.9471   -0.1414   -2.3819 H       1  UNL1        0.0640
     33 H           3.1434    0.0393    2.5465 H       1  UNL1        0.0663
     34 H          -6.1237    0.1628    2.0375 H       1  UNL1        0.0830
     35 H          -6.9682    0.0954   -0.3102 H       1  UNL1        0.0633
     36 H          -5.2955    0.0070   -2.1521 H       1  UNL1        0.0625
     37 H          -3.3780   -0.0786   -3.8005 H       1  UNL1        0.1036
     38 H           0.5984   -0.1044   -2.7884 H       1  UNL1        0.1036
@<TRIPOS>BOND
     1     1     2   ar
     2     2     3   ar
     3     3     4   ar
     4     4     5   ar
     5     4     6    1
     6     6     7   ar
     7     7     8   ar
     8     8     9   ar
     9     9    10   ar
    10    10    11   ar
    11    11    12   ar
    12    12    13   ar
    13    13    14   ar
    14    14    15   ar
    15    15    16   ar
    16    16    17   ar
    17    17    18   ar
    18    18    19   ar
    19    19    20   ar
    20    20    21   ar
    21    21    22   ar
    22    22    23   ar
    23    23    24   ar
    24    24    25   ar
    25    25    26   ar
    26    26    27   ar
    27    27    28   ar
    28     5     1   ar
    29    28     6   ar
    30    27     8   ar
    31    13     9   ar
    32    26    14   ar
    33    20    15   ar
    34    25    21   ar
    35     1    29    1
    36     2    30    1
    37     3    31    1
    38     5    32    1
    39     7    33    1
    40    17    34    1
    41    18    35    1
    42    19    36    1
    43    22    37    1
    44    24    38    1
