@<TRIPOS>MOLECULE
*****
 48 54 0 0 0
SMALL
GASTEIGER

@<TRIPOS>ATOM
      1 C          -6.0441    3.2782    0.6251 C.ar    1  UNL1       -0.0438
      2 C          -6.0745    3.1653   -0.7461 C.ar    1  UNL1        0.0022
      3 N          -5.1011    2.2755   -1.1177 N.ar    1  UNL1       -0.3606
      4 C          -4.4516    1.7984   -0.0011 C.ar    1  UNL1        0.0471
      5 C          -5.0168    2.4243    1.0949 C.ar    1  UNL1       -0.0364
      6 C          -3.3473    0.8405   -0.0875 C.ar    1  UNL1        0.0066
      7 C          -2.0620    1.3277    0.1708 C.ar    1  UNL1       -0.0443
      8 C          -0.9371    0.5076    0.0743 C.ar    1  UNL1       -0.0161
      9 C           0.3329    1.0503    0.3379 C.ar    1  UNL1       -0.0462
     10 C           1.4976    0.2774    0.2508 C.ar    1  UNL1       -0.0167
     11 C           2.7594    0.8256    0.5146 C.ar    1  UNL1       -0.0457
     12 C           3.9141    0.0187    0.4173 C.ar    1  UNL1       -0.0082
     13 C           5.2550    0.4086    0.6477 C.ar    1  UNL1        0.0071
     14 C           5.7256    1.6465    1.0137 C.ar    1  UNL1        0.0100
     15 N           7.0982    1.5463    1.1208 N.ar    1  UNL1       -0.3659
     16 C           7.5088    0.2626    0.8280 C.ar    1  UNL1        0.0094
     17 C           6.3804   -0.4570    0.5325 C.ar    1  UNL1        0.0000
     18 C           6.3410   -1.7969    0.1821 C.ar    1  UNL1       -0.0520
     19 C           5.0054   -2.2078   -0.0531 C.ar    1  UNL1       -0.0534
     20 C           3.8349   -1.3605    0.0530 C.ar    1  UNL1       -0.0166
     21 C           2.5539   -1.8719   -0.2029 C.ar    1  UNL1       -0.0463
     22 C           1.3905   -1.0770   -0.1098 C.ar    1  UNL1       -0.0167
     23 C           0.1134   -1.6109   -0.3708 C.ar    1  UNL1       -0.0457
     24 C          -1.0838   -0.8494   -0.2898 C.ar    1  UNL1       -0.0095
     25 C          -2.4042   -1.3717   -0.5480 C.ar    1  UNL1       -0.0095
     26 C          -2.6452   -2.7226   -0.9129 C.ar    1  UNL1       -0.0534
     27 C          -3.9271   -3.2252   -1.1471 C.ar    1  UNL1       -0.0611
     28 C          -5.0225   -2.3926   -1.0187 C.ar    1  UNL1       -0.0611
     29 C          -4.8288   -1.0596   -0.6658 C.ar    1  UNL1       -0.0534
     30 C          -3.5385   -0.5183   -0.4359 C.ar    1  UNL1       -0.0082
     31 H          -6.6886    3.9089    1.2235 H       1  UNL1        0.0633
     32 H          -6.6997    3.6431   -1.4883 H       1  UNL1        0.0807
     33 H          -4.8861    2.0005   -2.0674 H       1  UNL1        0.1653
     34 H          -4.7221    2.2736    2.1257 H       1  UNL1        0.0639
     35 H          -1.9451    2.3764    0.4425 H       1  UNL1        0.0630
     36 H           0.4173    2.0998    0.6174 H       1  UNL1        0.0630
     37 H           2.8572    1.8703    0.7946 H       1  UNL1        0.0630
     38 H           5.2300    2.5869    1.2095 H       1  UNL1        0.0813
     39 H           7.7147    2.3061    1.3776 H       1  UNL1        0.1648
     40 H           8.5564   -0.0036    0.8606 H       1  UNL1        0.0813
     41 H           7.1928   -2.4552    0.0944 H       1  UNL1        0.0624
     42 H           4.8571   -3.2515   -0.3371 H       1  UNL1        0.0624
     43 H           2.4527   -2.9195   -0.4831 H       1  UNL1        0.0630
     44 H           0.0650   -2.6612   -0.6453 H       1  UNL1        0.0630
     45 H          -1.8252   -3.4268   -1.0202 H       1  UNL1        0.0624
     46 H          -4.0612   -4.2685   -1.4201 H       1  UNL1        0.0618
     47 H          -6.0264   -2.7733   -1.1845 H       1  UNL1        0.0618
     48 H          -5.7156   -0.4380   -0.5538 H       1  UNL1        0.0624
@<TRIPOS>BOND
     1     1     2   ar
     2     2     3   ar
     3     3     4   ar
     4     4     5   ar
     5     4     6    1
     6     6     7   ar
     7     7     8   ar
     8     8     9   ar
     9     9    10   ar
    10    10    11   ar
    11    11    12   ar
    12    12    13   ar
    13    13    14   ar
    14    14    15   ar
    15    15    16   ar
    16    16    17   ar
    17    17    18   ar
    18    18    19   ar
    19    19    20   ar
    20    20    21   ar
    21    21    22   ar
    22    22    23   ar
    23    23    24   ar
    24    24    25   ar
    25    25    26   ar
    26    26    27   ar
    27    27    28   ar
    28    28    29   ar
    29    29    30   ar
    30     5     1   ar
    31    30     6   ar
    32    24     8   ar
    33    30    25   ar
    34    22    10   ar
    35    20    12   ar
    36    17    13   ar
    37     1    31    1
    38     2    32    1
    39     3    33    1
    40     5    34    1
    41     7    35    1
    42     9    36    1
    43    11    37    1
    44    14    38    1
    45    15    39    1
    46    16    40    1
    47    18    41    1
    48    19    42    1
    49    21    43    1
    50    23    44    1
    51    26    45    1
    52    27    46    1
    53    28    47    1
    54    29    48    1
