@<TRIPOS>MOLECULE
*****
 34 38 0 0 0
SMALL
GASTEIGER

@<TRIPOS>ATOM
      1 C          -6.3340    0.5103    0.0526 C.ar    1  UNL1       -0.0438
      2 C          -6.0004   -0.4764    0.9495 C.ar    1  UNL1        0.0022
      3 N          -4.6328   -0.5746    0.9787 N.ar    1  UNL1       -0.3595
      4 C          -4.0732    0.3361    0.1117 C.ar    1  UNL1        0.0629
      5 C          -5.1232    1.0213   -0.4742 C.ar    1  UNL1       -0.0350
      6 C          -2.6658    0.4992   -0.1023 C.ar    1  UNL1        0.0654
      7 C          -2.0125    1.3799   -0.9457 C.ar    1  UNL1       -0.0089
      8 C          -0.6226    1.1670   -0.8115 C.ar    1  UNL1        0.0897
      9 N           0.3969    1.7948   -1.4377 N.ar    1  UNL1       -0.2528
     10 C           1.6337    1.3593   -1.0909 C.ar    1  UNL1        0.0368
     11 C           1.9596    0.3457   -0.1688 C.ar    1  UNL1        0.0128
     12 C           0.8683   -0.2773    0.4561 C.ar    1  UNL1        0.0277
     13 C           1.1137   -1.2894    1.3805 C.ar    1  UNL1        0.0381
     14 N           2.3475   -1.7142    1.7175 N.ar    1  UNL1       -0.2543
     15 C           3.4019   -1.1289    1.1290 C.ar    1  UNL1        0.0716
     16 C           4.6660   -1.5773    1.4866 C.ar    1  UNL1       -0.0357
     17 C           5.8276   -1.0365    0.9345 C.ar    1  UNL1       -0.0597
     18 C           5.7300   -0.0192   -0.0014 C.ar    1  UNL1       -0.0611
     19 C           4.4717    0.4504   -0.3786 C.ar    1  UNL1       -0.0519
     20 C           3.2819   -0.0896    0.1740 C.ar    1  UNL1        0.0096
     21 C          -0.4355    0.1522    0.1179 C.ar    1  UNL1        0.0747
     22 N          -1.6900   -0.2359    0.5331 N.ar    1  UNL1       -0.3513
     23 H          -7.3374    0.8298   -0.1975 H       1  UNL1        0.0633
     24 H          -6.6156   -1.1159    1.5682 H       1  UNL1        0.0807
     25 H          -4.1251   -1.2262    1.5580 H       1  UNL1        0.1654
     26 H          -5.0310    1.8113   -1.2085 H       1  UNL1        0.0639
     27 H          -2.4780    2.1067   -1.5965 H       1  UNL1        0.0661
     28 H           2.4163    1.8958   -1.6220 H       1  UNL1        0.0836
     29 H           0.3113   -1.8074    1.8953 H       1  UNL1        0.0836
     30 H           4.7498   -2.3759    2.2208 H       1  UNL1        0.0639
     31 H           6.8005   -1.4132    1.2388 H       1  UNL1        0.0618
     32 H           6.6278    0.4104   -0.4388 H       1  UNL1        0.0618
     33 H           4.4364    1.2488   -1.1150 H       1  UNL1        0.0624
     34 H          -1.8636   -0.9611    1.2111 H       1  UNL1        0.1660
@<TRIPOS>BOND
     1     1     2   ar
     2     2     3   ar
     3     3     4   ar
     4     4     5   ar
     5     4     6    1
     6     6     7   ar
     7     7     8   ar
     8     8     9   ar
     9     9    10   ar
    10    10    11   ar
    11    11    12   ar
    12    12    13   ar
    13    13    14   ar
    14    14    15   ar
    15    15    16   ar
    16    16    17   ar
    17    17    18   ar
    18    18    19   ar
    19    19    20   ar
    20    12    21   ar
    21    21    22   ar
    22     5     1   ar
    23    22     6   ar
    24    21     8   ar
    25    20    11   ar
    26    20    15   ar
    27     1    23    1
    28     2    24    1
    29     3    25    1
    30     5    26    1
    31     7    27    1
    32    10    28    1
    33    13    29    1
    34    16    30    1
    35    17    31    1
    36    18    32    1
    37    19    33    1
    38    22    34    1
