@<TRIPOS>MOLECULE
*****
 45 52 0 0 0
SMALL
GASTEIGER

@<TRIPOS>ATOM
      1 C          -6.8488    1.8807   -0.6761 C.ar    1  UNL1       -0.0438
      2 C          -6.9926    0.5393   -0.9416 C.ar    1  UNL1        0.0022
      3 N          -5.7609   -0.0479   -0.8200 N.ar    1  UNL1       -0.3606
      4 C          -4.8205    0.8906   -0.4531 C.ar    1  UNL1        0.0472
      5 C          -5.4820    2.1048   -0.3835 C.ar    1  UNL1       -0.0364
      6 C          -3.4196    0.5765   -0.2657 C.ar    1  UNL1        0.0110
      7 C          -2.3493    1.3546   -0.7578 C.ar    1  UNL1       -0.0259
      8 C          -0.9631    1.0774   -0.5870 C.ar    1  UNL1        0.0729
      9 N          -0.1333    1.9960   -1.0694 N.ar    1  UNL1       -0.2543
     10 C           1.2100    1.8422   -0.9001 C.ar    1  UNL1        0.0366
     11 C           1.8846    0.7489   -0.3418 C.ar    1  UNL1        0.0113
     12 C           3.3772    0.6754   -0.2149 C.ar    1  UNL1        0.0201
     13 C           4.3120    1.7515   -0.5070 C.ar    1  UNL1        0.1082
     14 N           4.0020    2.9931   -0.9249 N.ar    1  UNL1       -0.1901
     15 S           5.4079    3.8407   -1.1095 S.2     1  UNL1        0.1165
     16 N           6.5125    2.6939   -0.6658 N.ar    1  UNL1       -0.1908
     17 C           5.8161    1.5912   -0.3501 C.ar    1  UNL1        0.1005
     18 C           6.4005    0.3877    0.0889 C.ar    1  UNL1       -0.0329
     19 C           5.5091   -0.6463    0.3698 C.ar    1  UNL1       -0.0512
     20 C           4.0887   -0.5063    0.2288 C.ar    1  UNL1       -0.0059
     21 C           3.1763   -1.5507    0.4694 C.ar    1  UNL1        0.0078
     22 C           3.5025   -2.8523    0.7777 C.ar    1  UNL1        0.0100
     23 N           2.3343   -3.5732    0.8004 N.ar    1  UNL1       -0.3659
     24 C           1.2757   -2.7479    0.5004 C.ar    1  UNL1        0.0100
     25 C           1.7500   -1.4606    0.3894 C.ar    1  UNL1        0.0084
     26 C           0.9944   -0.2964    0.0673 C.ar    1  UNL1        0.0032
     27 C          -0.4518   -0.0845    0.0672 C.ar    1  UNL1        0.0195
     28 C          -1.5426   -0.7956    0.6592 C.ar    1  UNL1        0.0302
     29 C          -1.5079   -1.7751    1.6206 C.ar    1  UNL1        0.1001
     30 O          -2.7743   -2.1498    1.9681 O.2     1  UNL1       -0.4698
     31 C          -3.6381   -1.3477    1.2829 C.ar    1  UNL1        0.1000
     32 C          -2.9301   -0.4804    0.4909 C.ar    1  UNL1        0.0297
     33 H          -7.6385    2.6206   -0.6980 H       1  UNL1        0.0633
     34 H          -7.8604   -0.0451   -1.2163 H       1  UNL1        0.0807
     35 H          -5.5637   -1.0249   -0.9915 H       1  UNL1        0.1653
     36 H          -5.0269    3.0557   -0.1355 H       1  UNL1        0.0639
     37 H          -2.5961    2.2606   -1.3160 H       1  UNL1        0.0646
     38 H           1.7470    2.6964   -1.3005 H       1  UNL1        0.0836
     39 H           7.4725    0.2790    0.1982 H       1  UNL1        0.0640
     40 H           5.9274   -1.5923    0.7099 H       1  UNL1        0.0624
     41 H           4.4467   -3.3544    0.9370 H       1  UNL1        0.0813
     42 H           2.2688   -4.5729    0.9472 H       1  UNL1        0.1648
     43 H           0.2973   -3.1839    0.3637 H       1  UNL1        0.0813
     44 H          -0.7288   -2.2762    2.1752 H       1  UNL1        0.1036
     45 H          -4.6840   -1.4924    1.5141 H       1  UNL1        0.1036
@<TRIPOS>BOND
     1     1     2   ar
     2     2     3   ar
     3     3     4   ar
     4     4     5   ar
     5     4     6    1
     6     6     7   ar
     7     7     8   ar
     8     8     9   ar
     9     9    10   ar
    10    10    11   ar
    11    11    12   ar
    12    12    13   ar
    13    13    14   ar
    14    14    15   ar
    15    15    16   ar
    16    16    17   ar
    17    17    18   ar
    18    18    19   ar
    19    19    20   ar
    20    20    21   ar
    21    21    22   ar
    22    22    23   ar
    23    23    24   ar
    24    24    25   ar
    25    25    26   ar
    26    26    27   ar
    27    27    28   ar
    28    28    29   ar
    29    29    30   ar
    30    30    31   ar
    31    31    32   ar
    32     5     1   ar
    33    32     6   ar
    34    27     8   ar
    35    32    28   ar
    36    26    11   ar
    37    20    12   ar
    38    25    21   ar
    39    17    13   ar
    40     1    33    1
    41     2    34    1
    42     3    35    1
    43     5    36    1
    44     7    37    1
    45    10    38    1
    46    18    39    1
    47    19    40    1
    48    22    41    1
    49    23    42    1
    50    24    43    1
    51    29    44    1
    52    31    45    1
