@<TRIPOS>MOLECULE
*****
 49 56 0 0 0
SMALL
GASTEIGER

@<TRIPOS>ATOM
      1 SI          2.1457   -3.5798   -1.8317 Si      1  UNL1        0.0000
      2 C           3.2818   -2.2190   -1.2596 C.2     1  UNL1        0.0000
      3 C           2.5938   -1.1860   -0.7285 C.ar    1  UNL1        0.0000
      4 C           3.1584    0.0970   -0.3175 C.ar    1  UNL1        0.0000
      5 C           2.2707    1.0897   -0.0825 C.ar    1  UNL1        0.0000
      6 C           0.7946    0.9457   -0.1125 C.ar    1  UNL1        0.0000
      7 C           0.2390   -0.3002   -0.1879 C.ar    1  UNL1        0.0000
      8 C          -1.2042   -0.4560    0.1597 C.ar    1  UNL1        0.0000
      9 C          -1.7332   -1.6347    0.7325 C.ar    1  UNL1        0.0000
     10 C          -1.0815   -2.7363    1.2358 C.ar    1  UNL1        0.0000
     11 O          -1.9794   -3.6480    1.7159 O.2     1  UNL1        0.0000
     12 C          -3.2229   -3.1039    1.5778 C.ar    1  UNL1        0.0000
     13 C          -3.1131   -1.8582    1.0206 C.ar    1  UNL1        0.0000
     14 C          -4.1135   -0.9314    0.8015 C.ar    1  UNL1        0.0000
     15 C          -5.5374   -1.0917    1.0730 C.2     1  UNL1        0.0000
     16 C          -6.2312    0.0357    0.8502 C.2     1  UNL1        0.0000
     17 SI         -5.1485    1.4477    0.2729 Si      1  UNL1        0.0000
     18 C          -3.6005    0.3339    0.3427 C.ar    1  UNL1        0.0000
     19 C          -2.1976    0.5981    0.0725 C.ar    1  UNL1        0.0000
     20 C          -1.5994    1.9518   -0.1535 C.ar    1  UNL1        0.0000
     21 C          -2.2407    3.1200   -0.3727 C.2     1  UNL1        0.0000
     22 SI         -1.0802    4.5828   -0.4332 Si      1  UNL1        0.0000
     23 C           0.3129    3.3864   -0.2026 C.2     1  UNL1        0.0000
     24 C          -0.1137    2.1076   -0.0963 C.ar    1  UNL1        0.0000
     25 C           1.1204   -1.3766   -0.6923 C.ar    1  UNL1        0.0000
     26 C           0.7139   -2.5225   -1.2821 C.2     1  UNL1        0.0000
     27 C           4.5487    0.4141   -0.1464 C.ar    1  UNL1        0.0000
     28 C           5.5960   -0.3816    0.3128 C.ar    1  UNL1        0.0000
     29 C           6.7793    0.3936    0.3086 C.ar    1  UNL1        0.0000
     30 C           6.4099    1.6331   -0.1424 C.ar    1  UNL1        0.0000
     31 O           5.0832    1.6633   -0.4096 O.2     1  UNL1        0.0000
     32 H           2.1859   -3.7739   -3.3007 H       1  UNL1        0.0000
     33 H           2.2894   -4.8086   -1.0148 H       1  UNL1        0.0000
     34 H           4.3419   -2.2800   -1.4442 H       1  UNL1        0.0000
     35 H           2.6430    2.0635    0.2240 H       1  UNL1        0.0000
     36 H          -0.0465   -3.0282    1.3409 H       1  UNL1        0.0000
     37 H          -4.0383   -3.7074    1.9497 H       1  UNL1        0.0000
     38 H          -5.9690   -2.0215    1.4158 H       1  UNL1        0.0000
     39 H          -7.2945    0.1670    0.9795 H       1  UNL1        0.0000
     40 H          -5.4821    1.8715   -1.1101 H       1  UNL1        0.0000
     41 H          -5.1093    2.5501    1.2666 H       1  UNL1        0.0000
     42 H          -3.2834    3.3340   -0.4866 H       1  UNL1        0.0000
     43 H          -1.0715    5.2358   -1.7639 H       1  UNL1        0.0000
     44 H          -1.2638    5.4902    0.7245 H       1  UNL1        0.0000
     45 H           1.3277    3.7449   -0.2533 H       1  UNL1        0.0000
     46 H          -0.2983   -2.8452   -1.4679 H       1  UNL1        0.0000
     47 H           5.5028   -1.4117    0.6283 H       1  UNL1        0.0000
     48 H           7.7726    0.0877    0.6042 H       1  UNL1        0.0000
     49 H           6.9425    2.5573   -0.3169 H       1  UNL1        0.0000
@<TRIPOS>BOND
     1     1     2    1
     2     2     3    2
     3     3     4   ar
     4     4     5   ar
     5     5     6   ar
     6     6     7   ar
     7     7     8   ar
     8     8     9   ar
     9     9    10   ar
    10    10    11   ar
    11    11    12   ar
    12    12    13   ar
    13    13    14   ar
    14    14    15    1
    15    15    16    2
    16    16    17    1
    17    17    18    1
    18    18    19   ar
    19    19    20   ar
    20    20    21    2
    21    21    22    1
    22    22    23    1
    23    23    24    2
    24     7    25   ar
    25    25    26    2
    26     4    27    1
    27    27    28   ar
    28    28    29   ar
    29    29    30   ar
    30    30    31   ar
    31    26     1    1
    32    31    27   ar
    33    25     3   ar
    34    24     6   ar
    35    19     8   ar
    36    24    20   ar
    37    13     9   ar
    38    18    14   ar
    39     1    32    1
    40     1    33    1
    41     2    34    1
    42     5    35    1
    43    10    36    1
    44    12    37    1
    45    15    38    1
    46    16    39    1
    47    17    40    1
    48    17    41    1
    49    21    42    1
    50    22    43    1
    51    22    44    1
    52    23    45    1
    53    26    46    1
    54    28    47    1
    55    29    48    1
    56    30    49    1
