@<TRIPOS>MOLECULE
*****
 36 41 0 0 0
SMALL
GASTEIGER

@<TRIPOS>ATOM
      1 C           6.6639   -0.7783    0.4356 C.ar    1  UNL1       -0.0438
      2 C           6.5942    0.4686   -0.1366 C.ar    1  UNL1        0.0022
      3 N           5.2700    0.7904   -0.2874 N.ar    1  UNL1       -0.3595
      4 C           4.4680   -0.2314    0.1795 C.ar    1  UNL1        0.0650
      5 C           5.3341   -1.2170    0.6337 C.ar    1  UNL1       -0.0349
      6 C           3.0039   -0.2104    0.1664 C.ar    1  UNL1        0.0891
      7 C           2.2529    0.8436   -0.3189 C.ar    1  UNL1       -0.0083
      8 C           0.8710    0.7769   -0.2916 C.ar    1  UNL1        0.0752
      9 N           0.2035    1.8269   -0.7748 N.ar    1  UNL1       -0.2542
     10 C          -1.1508    1.8014   -0.7663 C.ar    1  UNL1        0.0367
     11 C          -1.9617    0.7661   -0.2932 C.ar    1  UNL1        0.0122
     12 C          -3.4183    0.8395   -0.3303 C.ar    1  UNL1        0.0116
     13 C          -4.1609    1.9266   -0.8308 C.ar    1  UNL1        0.0359
     14 N          -5.5154    2.0246   -0.8789 N.ar    1  UNL1       -0.2626
     15 C          -6.2250    0.9863   -0.4043 C.ar    1  UNL1        0.0282
     16 C          -5.6408   -0.1465    0.1168 C.ar    1  UNL1       -0.0337
     17 C          -4.2337   -0.2137    0.1509 C.ar    1  UNL1        0.0138
     18 C          -3.5623   -1.3570    0.6770 C.ar    1  UNL1        0.1083
     19 N          -4.1577   -2.4544    1.1790 N.ar    1  UNL1       -0.1901
     20 S          -2.9559   -3.4828    1.6536 S.2     1  UNL1        0.1165
     21 N          -1.6294   -2.5880    1.2462 N.ar    1  UNL1       -0.1901
     22 C          -2.0576   -1.4296    0.7138 C.ar    1  UNL1        0.1089
     23 C          -1.2302   -0.3509    0.2209 C.ar    1  UNL1        0.0230
     24 C           0.2209   -0.3508    0.2243 C.ar    1  UNL1        0.0284
     25 C           1.0771   -1.3636    0.6909 C.ar    1  UNL1        0.0381
     26 N           2.4298   -1.3159    0.6722 N.ar    1  UNL1       -0.2528
     27 H           7.5695   -1.3159    0.6844 H       1  UNL1        0.0633
     28 H           7.3698    1.1546   -0.4495 H       1  UNL1        0.0807
     29 H           4.9393    1.6575   -0.6860 H       1  UNL1        0.1654
     30 H           5.0226   -2.1605    1.0658 H       1  UNL1        0.0639
     31 H           2.7181    1.7328   -0.7257 H       1  UNL1        0.0661
     32 H          -1.5682    2.7134   -1.1857 H       1  UNL1        0.0836
     33 H          -3.6798    2.8126   -1.2361 H       1  UNL1        0.0836
     34 H          -7.3047    1.0927   -0.4556 H       1  UNL1        0.0830
     35 H          -6.2590   -0.9582    0.4877 H       1  UNL1        0.0639
     36 H           0.7030   -2.2895    1.1147 H       1  UNL1        0.0836
@<TRIPOS>BOND
     1     1     2   ar
     2     2     3   ar
     3     3     4   ar
     4     4     5   ar
     5     4     6    1
     6     6     7   ar
     7     7     8   ar
     8     8     9   ar
     9     9    10   ar
    10    10    11   ar
    11    11    12   ar
    12    12    13   ar
    13    13    14   ar
    14    14    15   ar
    15    15    16   ar
    16    16    17   ar
    17    17    18   ar
    18    18    19   ar
    19    19    20   ar
    20    20    21   ar
    21    21    22   ar
    22    22    23   ar
    23    23    24   ar
    24    24    25   ar
    25    25    26   ar
    26     5     1   ar
    27    26     6   ar
    28    24     8   ar
    29    23    11   ar
    30    17    12   ar
    31    22    18   ar
    32     1    27    1
    33     2    28    1
    34     3    29    1
    35     5    30    1
    36     7    31    1
    37    10    32    1
    38    13    33    1
    39    15    34    1
    40    16    35    1
    41    25    36    1
