@<TRIPOS>MOLECULE
*****
 32 36 0 0 0
SMALL
GASTEIGER

@<TRIPOS>ATOM
      1 C          -5.2391   -0.3326    0.3635 C.ar    1  UNL1       -0.0438
      2 C          -5.0767    0.4980   -0.7202 C.ar    1  UNL1        0.0022
      3 N          -3.7325    0.6740   -0.9179 N.ar    1  UNL1       -0.3606
      4 C          -3.0178   -0.0110    0.0408 C.ar    1  UNL1        0.0472
      5 C          -3.9457   -0.6650    0.8330 C.ar    1  UNL1       -0.0364
      6 C          -1.5704   -0.0352    0.0851 C.ar    1  UNL1        0.0110
      7 C          -0.7979   -1.2199    0.2052 C.ar    1  UNL1       -0.0259
      8 C           0.6223   -1.2914    0.2398 C.ar    1  UNL1        0.0743
      9 N           1.1773   -2.5051    0.3463 N.ar    1  UNL1       -0.2542
     10 C           2.5266   -2.6524    0.3848 C.ar    1  UNL1        0.0374
     11 C           3.3774   -1.5452    0.3141 C.ar    1  UNL1        0.0184
     12 C           4.7911   -1.3871    0.3298 C.ar    1  UNL1       -0.0352
     13 C           5.0615   -0.0432    0.2294 C.ar    1  UNL1        0.0028
     14 N           3.8652    0.6202    0.1537 N.ar    1  UNL1       -0.3601
     15 C           2.8165   -0.2695    0.2023 C.ar    1  UNL1        0.0579
     16 C           1.4292   -0.1125    0.1617 C.ar    1  UNL1        0.0350
     17 C           0.6769    1.0634    0.0586 C.ar    1  UNL1        0.0316
     18 C           1.0864    2.3699   -0.0153 C.ar    1  UNL1        0.1001
     19 O          -0.0010    3.1976   -0.0752 O.2     1  UNL1       -0.4698
     20 C          -1.1185    2.4139   -0.0356 C.ar    1  UNL1        0.1000
     21 C          -0.7540    1.0937    0.0231 C.ar    1  UNL1        0.0297
     22 H          -6.1843   -0.6706    0.7683 H       1  UNL1        0.0633
     23 H          -5.7991    0.9690   -1.3733 H       1  UNL1        0.0807
     24 H          -3.3212    1.2123   -1.6688 H       1  UNL1        0.1653
     25 H          -3.7133   -1.3088    1.6723 H       1  UNL1        0.0639
     26 H          -1.3318   -2.1705    0.2652 H       1  UNL1        0.0646
     27 H           2.8931   -3.6692    0.4726 H       1  UNL1        0.0836
     28 H           5.5290   -2.1753    0.4068 H       1  UNL1        0.0639
     29 H           5.9984    0.4976    0.2059 H       1  UNL1        0.0807
     30 H           3.7762    1.6219    0.0736 H       1  UNL1        0.1654
     31 H           2.0342    2.8844   -0.0267 H       1  UNL1        0.1036
     32 H          -2.0579    2.9484   -0.0474 H       1  UNL1        0.1036
@<TRIPOS>BOND
     1     1     2   ar
     2     2     3   ar
     3     3     4   ar
     4     4     5   ar
     5     4     6    1
     6     6     7   ar
     7     7     8   ar
     8     8     9   ar
     9     9    10   ar
    10    10    11   ar
    11    11    12   ar
    12    12    13   ar
    13    13    14   ar
    14    14    15   ar
    15    15    16   ar
    16    16    17   ar
    17    17    18   ar
    18    18    19   ar
    19    19    20   ar
    20    20    21   ar
    21     5     1   ar
    22    21     6   ar
    23    16     8   ar
    24    21    17   ar
    25    15    11   ar
    26     1    22    1
    27     2    23    1
    28     3    24    1
    29     5    25    1
    30     7    26    1
    31    10    27    1
    32    12    28    1
    33    13    29    1
    34    14    30    1
    35    18    31    1
    36    20    32    1
