@<TRIPOS>MOLECULE
*****
 38 44 0 0 0
SMALL
GASTEIGER

@<TRIPOS>ATOM
      1 C           5.9397   -1.6339    1.1754 C.ar    1  UNL1       -0.0438
      2 C           5.9895   -1.7417   -0.1949 C.ar    1  UNL1        0.0022
      3 N           4.7847   -1.3225   -0.6945 N.ar    1  UNL1       -0.3606
      4 C           3.9623   -0.9177    0.3342 C.ar    1  UNL1        0.0472
      5 C           4.6600   -1.1292    1.5101 C.ar    1  UNL1       -0.0364
      6 C           2.6075   -0.4419    0.1187 C.ar    1  UNL1        0.0100
      7 C           1.4952   -1.0998    0.6727 C.ar    1  UNL1       -0.0090
      8 C           0.2025   -0.6148    0.4079 C.ar    1  UNL1        0.1377
      9 O          -0.9453   -1.1843    0.8854 O.2     1  UNL1       -0.4525
     10 C          -2.0061   -0.4436    0.4196 C.ar    1  UNL1        0.1642
     11 C          -1.5110    0.5941   -0.3556 C.ar    1  UNL1        0.0588
     12 C          -2.4653    1.4833   -0.9396 C.ar    1  UNL1        0.1119
     13 N          -2.1448    2.5105   -1.7052 N.ar    1  UNL1       -0.1900
     14 S          -3.6218    3.1842   -2.0990 S.2     1  UNL1        0.1165
     15 N          -4.6510    2.1493   -1.2875 N.ar    1  UNL1       -0.1901
     16 C          -3.8806    1.2286   -0.6697 C.ar    1  UNL1        0.1098
     17 C          -4.3476    0.1458    0.1393 C.ar    1  UNL1        0.0322
     18 C          -5.6956   -0.1381    0.4263 C.ar    1  UNL1       -0.0489
     19 C          -5.9996   -1.2319    1.2316 C.ar    1  UNL1       -0.0429
     20 C          -4.9556   -2.0046    1.7226 C.ar    1  UNL1        0.0284
     21 N          -3.6483   -1.7658    1.4700 N.ar    1  UNL1       -0.2512
     22 C          -3.3645   -0.6994    0.6866 C.ar    1  UNL1        0.1159
     23 C          -0.1257    0.4901   -0.3634 C.ar    1  UNL1        0.0384
     24 C           0.9819    1.2054   -0.9321 C.ar    1  UNL1        0.0012
     25 C           0.9448    2.3272   -1.7064 C.ar    1  UNL1       -0.0159
     26 S           2.5461    2.8151   -2.1092 S.2     1  UNL1       -0.1038
     27 C           3.2415    1.5123   -1.2255 C.ar    1  UNL1       -0.0160
     28 C           2.2896    0.6928   -0.6520 C.ar    1  UNL1       -0.0010
     29 H           6.7345   -1.8964    1.8616 H       1  UNL1        0.0633
     30 H           6.7726   -2.0883   -0.8558 H       1  UNL1        0.0807
     31 H           4.5292   -1.3131   -1.6733 H       1  UNL1        0.1653
     32 H           4.2872   -0.9304    2.5071 H       1  UNL1        0.0639
     33 H           1.6212   -1.9851    1.2893 H       1  UNL1        0.0661
     34 H          -6.4905    0.4865    0.0262 H       1  UNL1        0.0625
     35 H          -7.0282   -1.4785    1.4726 H       1  UNL1        0.0633
     36 H          -5.1508   -2.8672    2.3548 H       1  UNL1        0.0830
     37 H           0.1227    2.9182   -2.0709 H       1  UNL1        0.0700
     38 H           4.3195    1.4403   -1.1775 H       1  UNL1        0.0700
@<TRIPOS>BOND
     1     1     2   ar
     2     2     3   ar
     3     3     4   ar
     4     4     5   ar
     5     4     6    1
     6     6     7   ar
     7     7     8   ar
     8     8     9   ar
     9     9    10   ar
    10    10    11   ar
    11    11    12   ar
    12    12    13   ar
    13    13    14   ar
    14    14    15   ar
    15    15    16   ar
    16    16    17   ar
    17    17    18   ar
    18    18    19   ar
    19    19    20   ar
    20    20    21   ar
    21    21    22   ar
    22    11    23   ar
    23    23    24   ar
    24    24    25   ar
    25    25    26   ar
    26    26    27   ar
    27    27    28   ar
    28     5     1   ar
    29    28     6   ar
    30    23     8   ar
    31    28    24   ar
    32    22    10   ar
    33    16    12   ar
    34    22    17   ar
    35     1    29    1
    36     2    30    1
    37     3    31    1
    38     5    32    1
    39     7    33    1
    40    18    34    1
    41    19    35    1
    42    20    36    1
    43    25    37    1
    44    27    38    1
