@<TRIPOS>MOLECULE
*****
 36 42 0 0 0
SMALL
GASTEIGER

@<TRIPOS>ATOM
      1 C           6.3161   -0.1775   -1.8533 C.ar    1  UNL1       -0.0438
      2 C           5.5209    0.2126   -2.9000 C.ar    1  UNL1        0.0022
      3 N           4.2246    0.2248   -2.4590 N.ar    1  UNL1       -0.3606
      4 C           4.1490   -0.1534   -1.1289 C.ar    1  UNL1        0.0487
      5 C           5.4614   -0.4060   -0.7484 C.ar    1  UNL1       -0.0364
      6 C           2.8791   -0.2326   -0.3832 C.ar    1  UNL1        0.0299
      7 C           1.6289    0.0802   -0.9936 C.ar    1  UNL1       -0.0074
      8 C           0.4594   -0.0139   -0.2342 C.ar    1  UNL1        0.1396
      9 O          -0.8192    0.2461   -0.6522 O.2     1  UNL1       -0.4535
     10 C          -1.6142    0.0117    0.4503 C.ar    1  UNL1        0.1516
     11 C          -0.8726   -0.3835    1.5340 C.ar    1  UNL1        0.0684
     12 S          -1.8795   -0.6784    2.9243 S.2     1  UNL1       -0.0842
     13 C          -3.3167   -0.2617    2.0257 C.ar    1  UNL1        0.0242
     14 C          -4.6718   -0.2397    2.4552 C.ar    1  UNL1       -0.0467
     15 C          -5.7164    0.1293    1.5746 C.ar    1  UNL1       -0.0524
     16 C          -5.2869    0.4573    0.2858 C.ar    1  UNL1       -0.0101
     17 C          -6.1625    0.8399   -0.7048 C.ar    1  UNL1       -0.0166
     18 S          -5.3439    1.1829   -2.1899 S.2     1  UNL1       -0.1039
     19 C          -3.7974    0.8196   -1.5162 C.ar    1  UNL1       -0.0159
     20 C          -3.9608    0.4582   -0.2116 C.ar    1  UNL1        0.0009
     21 C          -2.9695    0.0763    0.7335 C.ar    1  UNL1        0.0403
     22 C           0.4365   -0.3905    1.0706 C.ar    1  UNL1        0.0627
     23 C           1.6026   -0.7222    1.7773 C.ar    1  UNL1        0.1123
     24 N           1.6210   -1.0927    3.0453 N.ar    1  UNL1       -0.1900
     25 S           3.2535   -1.3477    3.3146 S.2     1  UNL1        0.1165
     26 N           3.8766   -0.9776    1.8086 N.ar    1  UNL1       -0.1901
     27 C           2.8469   -0.6323    1.0043 C.ar    1  UNL1        0.1098
     28 H           7.3925   -0.2876   -1.8757 H       1  UNL1        0.0633
     29 H           5.7629    0.4825   -3.9192 H       1  UNL1        0.0807
     30 H           3.4390    0.4786   -3.0398 H       1  UNL1        0.1653
     31 H           5.7919   -0.7264    0.2311 H       1  UNL1        0.0639
     32 H           1.5524    0.3893   -2.0289 H       1  UNL1        0.0662
     33 H          -4.9128   -0.5118    3.4813 H       1  UNL1        0.0629
     34 H          -6.7511    0.1478    1.8965 H       1  UNL1        0.0624
     35 H          -7.2380    0.9428   -0.6580 H       1  UNL1        0.0699
     36 H          -2.9015    0.8969   -2.1160 H       1  UNL1        0.0700
@<TRIPOS>BOND
     1     1     2   ar
     2     2     3   ar
     3     3     4   ar
     4     4     5   ar
     5     4     6    1
     6     6     7   ar
     7     7     8   ar
     8     8     9   ar
     9     9    10   ar
    10    10    11   ar
    11    11    12   ar
    12    12    13   ar
    13    13    14   ar
    14    14    15   ar
    15    15    16   ar
    16    16    17   ar
    17    17    18   ar
    18    18    19   ar
    19    19    20   ar
    20    20    21   ar
    21    11    22   ar
    22    22    23   ar
    23    23    24   ar
    24    24    25   ar
    25    25    26   ar
    26    26    27   ar
    27     5     1   ar
    28    27     6   ar
    29    22     8   ar
    30    27    23   ar
    31    21    10   ar
    32    21    13   ar
    33    20    16   ar
    34     1    28    1
    35     2    29    1
    36     3    30    1
    37     5    31    1
    38     7    32    1
    39    14    33    1
    40    15    34    1
    41    17    35    1
    42    19    36    1
