@<TRIPOS>MOLECULE
*****
 37 41 0 0 0
SMALL
GASTEIGER

@<TRIPOS>ATOM
      1 C           5.7293    2.1449   -2.8040 C.ar    1  UNL1       -0.0438
      2 C           5.0751    3.0659   -2.0199 C.ar    1  UNL1        0.0022
      3 N           4.0416    2.4227   -1.3885 N.ar    1  UNL1       -0.3595
      4 C           4.0119    1.0987   -1.7604 C.ar    1  UNL1        0.0629
      5 C           5.0652    0.9055   -2.6354 C.ar    1  UNL1       -0.0350
      6 C           3.0553    0.1503   -1.2781 C.ar    1  UNL1        0.0633
      7 C           3.1222   -1.2291   -1.2731 C.ar    1  UNL1       -0.0344
      8 C           1.9249   -1.7214   -0.6992 C.ar    1  UNL1       -0.0358
      9 C           1.1337   -0.6362   -0.3736 C.ar    1  UNL1        0.0475
     10 N           1.8407    0.4907   -0.7318 N.ar    1  UNL1       -0.3530
     11 C          -0.1814   -0.5669    0.2305 C.ar    1  UNL1        0.0065
     12 C          -0.4352    0.0970    1.4523 C.ar    1  UNL1       -0.0514
     13 C          -1.7255    0.1672    2.0649 C.ar    1  UNL1       -0.0522
     14 C          -2.8934   -0.4161    1.5156 C.ar    1  UNL1       -0.0016
     15 C          -4.2035   -0.3185    2.1297 C.ar    1  UNL1        0.0394
     16 C          -5.3742    0.2400    1.6503 C.ar    1  UNL1        0.0425
     17 N          -6.4705    0.1638    2.4886 N.ar    1  UNL1       -0.2551
     18 C          -6.1192   -0.4461    3.5986 C.ar    1  UNL1        0.0652
     19 S          -4.4843   -0.9513    3.7019 S.2     1  UNL1       -0.0754
     20 C          -2.6473   -1.0779    0.2970 C.ar    1  UNL1       -0.0020
     21 C          -3.5977   -1.7521   -0.4364 C.ar    1  UNL1       -0.0160
     22 S          -2.9409   -2.4221   -1.8745 S.2     1  UNL1       -0.1038
     23 C          -1.3687   -1.8342   -1.5175 C.ar    1  UNL1       -0.0160
     24 C          -1.3351   -1.1516   -0.3229 C.ar    1  UNL1       -0.0012
     25 H           6.5928    2.3396   -3.4267 H       1  UNL1        0.0633
     26 H           5.2583    4.1186   -1.8515 H       1  UNL1        0.0807
     27 H           3.4164    2.8578   -0.7262 H       1  UNL1        0.1654
     28 H           5.3258   -0.0308   -3.1117 H       1  UNL1        0.0639
     29 H           3.9510   -1.8229   -1.6366 H       1  UNL1        0.0639
     30 H           1.6675   -2.7610   -0.5398 H       1  UNL1        0.0639
     31 H           1.4836    1.4305   -0.6470 H       1  UNL1        0.1659
     32 H           0.3970    0.5697    1.9753 H       1  UNL1        0.0624
     33 H          -1.8033    0.7075    3.0097 H       1  UNL1        0.0624
     34 H          -5.4847    0.7212    0.6854 H       1  UNL1        0.0841
     35 H          -6.8172   -0.6214    4.4069 H       1  UNL1        0.0907
     36 H          -4.6479   -1.9001   -0.2255 H       1  UNL1        0.0700
     37 H          -0.5621   -2.0318   -2.2103 H       1  UNL1        0.0700
@<TRIPOS>BOND
     1     1     2   ar
     2     2     3   ar
     3     3     4   ar
     4     4     5   ar
     5     4     6    1
     6     6     7   ar
     7     7     8   ar
     8     8     9   ar
     9     9    10   ar
    10     9    11    1
    11    11    12   ar
    12    12    13   ar
    13    13    14   ar
    14    14    15    1
    15    15    16   ar
    16    16    17   ar
    17    17    18   ar
    18    18    19   ar
    19    14    20   ar
    20    20    21   ar
    21    21    22   ar
    22    22    23   ar
    23    23    24   ar
    24     5     1   ar
    25    10     6   ar
    26    24    11   ar
    27    19    15   ar
    28    24    20   ar
    29     1    25    1
    30     2    26    1
    31     3    27    1
    32     5    28    1
    33     7    29    1
    34     8    30    1
    35    10    31    1
    36    12    32    1
    37    13    33    1
    38    16    34    1
    39    18    35    1
    40    21    36    1
    41    23    37    1
