@<TRIPOS>MOLECULE
*****
 45 50 0 0 0
SMALL
GASTEIGER

@<TRIPOS>ATOM
      1 C          -7.5537   -0.1568   -0.7362 C.ar    1  UNL1       -0.0438
      2 C          -7.3912    1.2059   -0.8255 C.ar    1  UNL1        0.0022
      3 N          -6.0512    1.4772   -0.7358 N.ar    1  UNL1       -0.3606
      4 C          -5.3410    0.3077   -0.5770 C.ar    1  UNL1        0.0471
      5 C          -6.2652   -0.7227   -0.5832 C.ar    1  UNL1       -0.0364
      6 C          -3.8960    0.2875   -0.4591 C.ar    1  UNL1        0.0065
      7 C          -3.0335    0.8565   -1.4238 C.ar    1  UNL1       -0.0514
      8 C          -1.6062    0.8339   -1.3266 C.ar    1  UNL1       -0.0528
      9 C          -0.8893    0.2409   -0.2570 C.ar    1  UNL1       -0.0090
     10 C           0.5559    0.2280   -0.1780 C.ar    1  UNL1       -0.0090
     11 C           1.3234    1.3361    0.2561 C.ar    1  UNL1       -0.0528
     12 C           2.7520    1.3408    0.3395 C.ar    1  UNL1       -0.0528
     13 C           3.5774    0.2412   -0.0098 C.ar    1  UNL1       -0.0082
     14 C           5.0300    0.2732    0.0739 C.ar    1  UNL1        0.0008
     15 C           5.6895    0.3704    1.3042 C.ar    1  UNL1       -0.0511
     16 C           7.0818    0.4045    1.3515 C.ar    1  UNL1       -0.0430
     17 C           7.7812    0.3444    0.1582 C.ar    1  UNL1        0.0276
     18 N           7.1905    0.2571   -1.0515 N.ar    1  UNL1       -0.2627
     19 C           5.8357    0.2274   -1.0640 C.ar    1  UNL1        0.0353
     20 C           2.8168   -0.8635   -0.4412 C.ar    1  UNL1       -0.0025
     21 C           3.3535   -2.0763   -0.8113 C.ar    1  UNL1       -0.0160
     22 S           2.1409   -3.1960   -1.2846 S.2     1  UNL1       -0.1038
     23 C           0.8808   -2.0717   -0.9801 C.ar    1  UNL1       -0.0160
     24 C           1.3684   -0.8683   -0.5228 C.ar    1  UNL1       -0.0026
     25 C          -1.7496   -0.3149    0.7097 C.ar    1  UNL1       -0.0025
     26 C          -1.3166   -0.9329    1.8610 C.ar    1  UNL1       -0.0160
     27 S          -2.6284   -1.4784    2.8238 S.2     1  UNL1       -0.1038
     28 C          -3.7899   -0.8832    1.7081 C.ar    1  UNL1       -0.0160
     29 C          -3.1975   -0.2953    0.6137 C.ar    1  UNL1       -0.0012
     30 H          -8.4960   -0.6876   -0.7790 H       1  UNL1        0.0633
     31 H          -8.1109    2.0044   -0.9464 H       1  UNL1        0.0807
     32 H          -5.6403    2.4009   -0.7612 H       1  UNL1        0.1653
     33 H          -6.0325   -1.7764   -0.4927 H       1  UNL1        0.0639
     34 H          -3.4697    1.3232   -2.3078 H       1  UNL1        0.0624
     35 H          -1.0397    1.2946   -2.1380 H       1  UNL1        0.0624
     36 H           0.7993    2.2470    0.5514 H       1  UNL1        0.0624
     37 H           3.2292    2.2593    0.6869 H       1  UNL1        0.0624
     38 H           5.1218    0.4109    2.2310 H       1  UNL1        0.0625
     39 H           7.6071    0.4742    2.2974 H       1  UNL1        0.0633
     40 H           8.8672    0.3662    0.1433 H       1  UNL1        0.0829
     41 H           5.3974    0.1659   -2.0576 H       1  UNL1        0.0836
     42 H           4.3897   -2.3858   -0.8359 H       1  UNL1        0.0700
     43 H          -0.1453   -2.3693   -1.1503 H       1  UNL1        0.0700
     44 H          -0.3044   -1.0990    2.2043 H       1  UNL1        0.0700
     45 H          -4.8415   -1.0014    1.9299 H       1  UNL1        0.0700
@<TRIPOS>BOND
     1     1     2   ar
     2     2     3   ar
     3     3     4   ar
     4     4     5   ar
     5     4     6    1
     6     6     7   ar
     7     7     8   ar
     8     8     9   ar
     9     9    10    1
    10    10    11   ar
    11    11    12   ar
    12    12    13   ar
    13    13    14    1
    14    14    15   ar
    15    15    16   ar
    16    16    17   ar
    17    17    18   ar
    18    18    19   ar
    19    13    20   ar
    20    20    21   ar
    21    21    22   ar
    22    22    23   ar
    23    23    24   ar
    24     9    25   ar
    25    25    26   ar
    26    26    27   ar
    27    27    28   ar
    28    28    29   ar
    29     5     1   ar
    30    29     6   ar
    31    24    10   ar
    32    29    25   ar
    33    19    14   ar
    34    24    20   ar
    35     1    30    1
    36     2    31    1
    37     3    32    1
    38     5    33    1
    39     7    34    1
    40     8    35    1
    41    11    36    1
    42    12    37    1
    43    15    38    1
    44    16    39    1
    45    17    40    1
    46    19    41    1
    47    21    42    1
    48    23    43    1
    49    26    44    1
    50    28    45    1
