@<TRIPOS>MOLECULE
*****
 43 47 0 0 0
SMALL
GASTEIGER

@<TRIPOS>ATOM
      1 C           7.4721    0.4965   -0.0074 C.ar    1  UNL1       -0.0438
      2 C           7.2767   -0.5350    0.8795 C.ar    1  UNL1        0.0022
      3 N           5.9263   -0.7101    1.0301 N.ar    1  UNL1       -0.3607
      4 C           5.2354    0.1993    0.2565 C.ar    1  UNL1        0.0465
      5 C           6.1924    0.9536   -0.4042 C.ar    1  UNL1       -0.0364
      6 C           3.7732    0.2519    0.1983 C.ar    1  UNL1       -0.0017
      7 C           2.9923   -0.0162    1.3299 C.ar    1  UNL1       -0.0521
      8 C           1.5954    0.0348    1.2623 C.ar    1  UNL1       -0.0534
      9 C           0.9468    0.3544    0.0617 C.ar    1  UNL1       -0.0173
     10 C           1.7290    0.6306   -1.0675 C.ar    1  UNL1       -0.0534
     11 C           3.1255    0.5804   -0.9989 C.ar    1  UNL1       -0.0521
     12 C          -0.5228    0.4120   -0.0071 C.ar    1  UNL1       -0.0101
     13 C          -1.1394    1.6380    0.2729 C.ar    1  UNL1       -0.0528
     14 C          -2.5229    1.7627    0.2329 C.ar    1  UNL1       -0.0499
     15 C          -3.3494    0.6681   -0.0830 C.ar    1  UNL1        0.0269
     16 C          -4.8069    0.8886   -0.0731 C.ar    1  UNL1        0.1636
     17 N          -5.5586    0.0814    0.6828 N.ar    1  UNL1       -0.2160
     18 C          -6.8569    0.3709    0.6784 C.ar    1  UNL1        0.1200
     19 N          -7.4370    1.3624    0.0075 N.ar    1  UNL1       -0.2241
     20 C          -6.5874    2.1032   -0.6991 C.ar    1  UNL1        0.1200
     21 N          -5.2710    1.9286   -0.7756 N.ar    1  UNL1       -0.2160
     22 C          -2.7439   -0.5888   -0.3921 C.ar    1  UNL1       -0.0066
     23 C          -3.4938   -1.7337   -0.7660 C.ar    1  UNL1       -0.0533
     24 C          -2.8946   -2.9578   -1.0657 C.ar    1  UNL1       -0.0611
     25 C          -1.5183   -3.0782   -1.0070 C.ar    1  UNL1       -0.0611
     26 C          -0.7469   -1.9721   -0.6552 C.ar    1  UNL1       -0.0534
     27 C          -1.3232   -0.7149   -0.3480 C.ar    1  UNL1       -0.0095
     28 H           8.4298    0.8782   -0.3366 H       1  UNL1        0.0633
     29 H           7.9789   -1.1614    1.4128 H       1  UNL1        0.0807
     30 H           5.4949   -1.4189    1.6072 H       1  UNL1        0.1653
     31 H           5.9893    1.7615   -1.0955 H       1  UNL1        0.0639
     32 H           3.4568   -0.2466    2.2849 H       1  UNL1        0.0624
     33 H           1.0109   -0.1736    2.1564 H       1  UNL1        0.0624
     34 H           1.2519    0.8836   -2.0123 H       1  UNL1        0.0624
     35 H           3.7019    0.7901   -1.8970 H       1  UNL1        0.0624
     36 H          -0.5360    2.5077    0.5276 H       1  UNL1        0.0624
     37 H          -2.9680    2.7306    0.4608 H       1  UNL1        0.0625
     38 H          -7.5028   -0.2612    1.2783 H       1  UNL1        0.1048
     39 H          -7.0069    2.9289   -1.2638 H       1  UNL1        0.1048
     40 H          -4.5788   -1.6887   -0.8343 H       1  UNL1        0.0624
     41 H          -3.5085   -3.8099   -1.3444 H       1  UNL1        0.0618
     42 H          -1.0392   -4.0255   -1.2381 H       1  UNL1        0.0618
     43 H           0.3334   -2.1055   -0.6283 H       1  UNL1        0.0624
@<TRIPOS>BOND
     1     1     2   ar
     2     2     3   ar
     3     3     4   ar
     4     4     5   ar
     5     4     6    1
     6     6     7   ar
     7     7     8   ar
     8     8     9   ar
     9     9    10   ar
    10    10    11   ar
    11     9    12    1
    12    12    13   ar
    13    13    14   ar
    14    14    15   ar
    15    15    16    1
    16    16    17   ar
    17    17    18   ar
    18    18    19   ar
    19    19    20   ar
    20    20    21   ar
    21    15    22   ar
    22    22    23   ar
    23    23    24   ar
    24    24    25   ar
    25    25    26   ar
    26    26    27   ar
    27     5     1   ar
    28    11     6   ar
    29    27    12   ar
    30    21    16   ar
    31    27    22   ar
    32     1    28    1
    33     2    29    1
    34     3    30    1
    35     5    31    1
    36     7    32    1
    37     8    33    1
    38    10    34    1
    39    11    35    1
    40    13    36    1
    41    14    37    1
    42    18    38    1
    43    20    39    1
    44    23    40    1
    45    24    41    1
    46    25    42    1
    47    26    43    1
