@<TRIPOS>MOLECULE
*****
 40 45 0 0 0
SMALL
GASTEIGER

@<TRIPOS>ATOM
      1 C           7.7783    0.6678    0.6391 C.ar    1  UNL1       -0.0438
      2 C           7.6551   -0.6866    0.8443 C.ar    1  UNL1        0.0022
      3 N           6.3277   -1.0092    0.7418 N.ar    1  UNL1       -0.3606
      4 C           5.5828    0.1193    0.4699 C.ar    1  UNL1        0.0479
      5 C           6.4769    1.1761    0.4114 C.ar    1  UNL1       -0.0364
      6 C           4.1312    0.0955    0.3165 C.ar    1  UNL1        0.0164
      7 C           3.4797   -0.9285   -0.3672 C.ar    1  UNL1       -0.0492
      8 C           2.0884   -0.9057   -0.4991 C.ar    1  UNL1       -0.0350
      9 C           1.3591    0.1461    0.0527 C.ar    1  UNL1        0.0731
     10 N           1.9760    1.1400    0.7426 N.ar    1  UNL1       -0.2543
     11 C           3.3290    1.0996    0.8447 C.ar    1  UNL1        0.0374
     12 C          -0.1027    0.2620   -0.0228 C.ar    1  UNL1        0.0285
     13 C          -0.8689    0.8344    1.0290 C.ar    1  UNL1       -0.0498
     14 C          -2.2752    0.9807    1.0104 C.ar    1  UNL1       -0.0506
     15 C          -3.0690    0.5710   -0.0752 C.ar    1  UNL1        0.0205
     16 C          -4.5054    0.7090   -0.0957 C.ar    1  UNL1        0.0642
     17 S          -5.3227    2.2338   -0.0422 S.2     1  UNL1       -0.0922
     18 C          -6.9062    1.5078   -0.1277 C.ar    1  UNL1       -0.0129
     19 C          -6.7397    0.1685   -0.1731 C.ar    1  UNL1        0.0278
     20 C          -7.4911   -1.0158   -0.2328 C.ar    1  UNL1       -0.0156
     21 C          -6.5409   -2.0459   -0.2361 C.ar    1  UNL1        0.0932
     22 O          -5.2291   -1.6104   -0.1786 O.2     1  UNL1       -0.4618
     23 C          -5.4355   -0.2637   -0.1539 C.ar    1  UNL1        0.1495
     24 C          -2.3805    0.0040   -1.1846 C.ar    1  UNL1        0.1088
     25 N          -2.9259   -0.4258   -2.3373 N.ar    1  UNL1       -0.1901
     26 S          -1.6902   -0.9679   -3.2888 S.2     1  UNL1        0.1165
     27 N          -0.3952   -0.6999   -2.2953 N.ar    1  UNL1       -0.1901
     28 C          -0.8658   -0.1549   -1.1574 C.ar    1  UNL1        0.1096
     29 H           8.7030    1.2308    0.6538 H       1  UNL1        0.0633
     30 H           8.3950   -1.4476    1.0552 H       1  UNL1        0.0807
     31 H           5.9453   -1.9368    0.8699 H       1  UNL1        0.1653
     32 H           6.2212    2.2100    0.2111 H       1  UNL1        0.0639
     33 H           4.0377   -1.7383   -0.8278 H       1  UNL1        0.0625
     34 H           1.5966   -1.7141   -1.0315 H       1  UNL1        0.0639
     35 H           3.7613    1.9308    1.3966 H       1  UNL1        0.0836
     36 H          -0.3388    1.1886    1.9169 H       1  UNL1        0.0625
     37 H          -2.7539    1.4281    1.8821 H       1  UNL1        0.0625
     38 H          -7.8029    2.1100   -0.1307 H       1  UNL1        0.0701
     39 H          -8.5636   -1.1402   -0.2681 H       1  UNL1        0.0655
     40 H          -6.6413   -3.1225   -0.2741 H       1  UNL1        0.1030
@<TRIPOS>BOND
     1     1     2   ar
     2     2     3   ar
     3     3     4   ar
     4     4     5   ar
     5     4     6    1
     6     6     7   ar
     7     7     8   ar
     8     8     9   ar
     9     9    10   ar
    10    10    11   ar
    11     9    12    1
    12    12    13   ar
    13    13    14   ar
    14    14    15   ar
    15    15    16    1
    16    16    17   ar
    17    17    18   ar
    18    18    19   ar
    19    19    20   ar
    20    20    21   ar
    21    21    22   ar
    22    22    23   ar
    23    15    24   ar
    24    24    25   ar
    25    25    26   ar
    26    26    27   ar
    27    27    28   ar
    28     5     1   ar
    29    11     6   ar
    30    28    12   ar
    31    23    16   ar
    32    28    24   ar
    33    23    19   ar
    34     1    29    1
    35     2    30    1
    36     3    31    1
    37     5    32    1
    38     7    33    1
    39     8    34    1
    40    11    35    1
    41    13    36    1
    42    14    37    1
    43    18    38    1
    44    20    39    1
    45    21    40    1
