@<TRIPOS>MOLECULE
*****
 31 34 0 0 0
SMALL
GASTEIGER

@<TRIPOS>ATOM
      1 C          -6.5369   -0.6831    0.5115 C.ar    1  UNL1       -0.0438
      2 C          -6.6830    0.5791   -0.0123 C.ar    1  UNL1        0.0022
      3 N          -5.4311    1.0770   -0.2640 N.ar    1  UNL1       -0.3603
      4 C          -4.4695    0.1553    0.0890 C.ar    1  UNL1        0.0531
      5 C          -5.1474   -0.9505    0.5756 C.ar    1  UNL1       -0.0359
      6 C          -3.0570    0.3971   -0.0609 C.ar    1  UNL1        0.0361
      7 C          -2.4393    1.5283   -0.5560 C.ar    1  UNL1       -0.0449
      8 C          -1.0149    1.4219   -0.5605 C.ar    1  UNL1       -0.0457
      9 C          -0.5631    0.2109   -0.0689 C.ar    1  UNL1        0.0280
     10 S          -1.8913   -0.7754    0.3900 S.2     1  UNL1       -0.0862
     11 C           0.8021   -0.2433    0.0742 C.ar    1  UNL1        0.0460
     12 C           1.2742   -1.4502    0.5634 C.ar    1  UNL1        0.0438
     13 N           2.6476   -1.6112    0.5835 N.ar    1  UNL1       -0.2452
     14 C           3.2262   -0.5303    0.1109 C.ar    1  UNL1        0.1249
     15 S           2.1572    0.7203   -0.3760 S.2     1  UNL1       -0.0653
     16 C           4.6536   -0.4199    0.0154 C.ar    1  UNL1        0.0718
     17 C           5.6237   -1.3410    0.3678 C.ar    1  UNL1       -0.0344
     18 C           6.8900   -0.7732    0.0863 C.ar    1  UNL1       -0.0438
     19 C           6.6669    0.4820   -0.4316 C.ar    1  UNL1        0.0022
     20 N           5.3119    0.6864   -0.4706 N.ar    1  UNL1       -0.3591
     21 H          -7.3400   -1.3423    0.8153 H       1  UNL1        0.0633
     22 H          -7.5663    1.1654   -0.2275 H       1  UNL1        0.0807
     23 H          -5.2447    1.9903   -0.6530 H       1  UNL1        0.1653
     24 H          -4.6945   -1.8630    0.9423 H       1  UNL1        0.0639
     25 H          -2.9665    2.4063   -0.9055 H       1  UNL1        0.0630
     26 H          -0.3640    2.2124   -0.9140 H       1  UNL1        0.0629
     27 H           0.6592   -2.2654    0.9260 H       1  UNL1        0.0841
     28 H           5.4290   -2.3216    0.7852 H       1  UNL1        0.0639
     29 H           7.8572   -1.2324    0.2453 H       1  UNL1        0.0633
     30 H           7.3529    1.2449   -0.7748 H       1  UNL1        0.0807
     31 H           4.8579    1.5254   -0.8063 H       1  UNL1        0.1654
@<TRIPOS>BOND
     1     1     2   ar
     2     2     3   ar
     3     3     4   ar
     4     4     5   ar
     5     4     6    1
     6     6     7   ar
     7     7     8   ar
     8     8     9   ar
     9     9    10   ar
    10     9    11    1
    11    11    12   ar
    12    12    13   ar
    13    13    14   ar
    14    14    15   ar
    15    14    16    1
    16    16    17   ar
    17    17    18   ar
    18    18    19   ar
    19    19    20   ar
    20     5     1   ar
    21    10     6   ar
    22    15    11   ar
    23    20    16   ar
    24     1    21    1
    25     2    22    1
    26     3    23    1
    27     5    24    1
    28     7    25    1
    29     8    26    1
    30    12    27    1
    31    17    28    1
    32    18    29    1
    33    19    30    1
    34    20    31    1
