@<TRIPOS>MOLECULE
*****
 36 41 0 0 0
SMALL
GASTEIGER

@<TRIPOS>ATOM
      1 C           6.5662    0.0427    0.1056 C.ar    1  UNL1       -0.0438
      2 C           6.1516   -1.2107    0.4797 C.ar    1  UNL1        0.0022
      3 N           4.7819   -1.2239    0.4590 N.ar    1  UNL1       -0.3607
      4 C           4.2848    0.0078    0.0750 C.ar    1  UNL1        0.0466
      5 C           5.4010    0.8053   -0.1477 C.ar    1  UNL1       -0.0364
      6 C           2.8455    0.3124   -0.0438 C.ar    1  UNL1        0.0018
      7 C           2.4300    1.5970   -0.4425 C.ar    1  UNL1       -0.0518
      8 C           1.0738    1.9453   -0.5730 C.ar    1  UNL1       -0.0497
      9 C           0.1014    0.9745   -0.2949 C.ar    1  UNL1        0.0301
     10 C           0.5272   -0.2921    0.0985 C.ar    1  UNL1        0.1370
     11 C           1.8680   -0.6600    0.2347 C.ar    1  UNL1       -0.0096
     12 O          -0.5376   -1.1215    0.3318 O.2     1  UNL1       -0.4541
     13 C          -1.6779   -0.3972    0.0907 C.ar    1  UNL1        0.1461
     14 C          -1.2935    0.8681   -0.2877 C.ar    1  UNL1        0.0566
     15 C          -2.3024    1.8232   -0.5968 C.ar    1  UNL1        0.1118
     16 N          -2.0302    3.0639   -0.9697 N.ar    1  UNL1       -0.1900
     17 S          -3.5565    3.7175   -1.1964 S.2     1  UNL1        0.1165
     18 N          -4.5188    2.4020   -0.8131 N.ar    1  UNL1       -0.1901
     19 C          -3.6898    1.3859   -0.4887 C.ar    1  UNL1        0.1084
     20 C          -4.0675    0.0581   -0.0911 C.ar    1  UNL1        0.0138
     21 C          -5.4029   -0.3783    0.0177 C.ar    1  UNL1       -0.0518
     22 C          -5.6775   -1.6897    0.4121 C.ar    1  UNL1       -0.0611
     23 C          -4.6356   -2.5760    0.7008 C.ar    1  UNL1       -0.0611
     24 C          -3.3050   -2.1639    0.5993 C.ar    1  UNL1       -0.0504
     25 C          -3.0124   -0.8477    0.2038 C.ar    1  UNL1        0.0272
     26 H           7.5927    0.3753    0.0228 H       1  UNL1        0.0633
     27 H           6.7095   -2.0944    0.7589 H       1  UNL1        0.0807
     28 H           4.2213   -2.0298    0.6942 H       1  UNL1        0.1653
     29 H           5.3896    1.8403   -0.4630 H       1  UNL1        0.0639
     30 H           3.1648    2.3682   -0.6641 H       1  UNL1        0.0624
     31 H           0.7934    2.9482   -0.8835 H       1  UNL1        0.0625
     32 H           2.1067   -1.6676    0.5459 H       1  UNL1        0.0661
     33 H          -6.2232    0.3013   -0.2041 H       1  UNL1        0.0624
     34 H          -6.7095   -2.0233    0.4950 H       1  UNL1        0.0618
     35 H          -4.8632   -3.5947    1.0069 H       1  UNL1        0.0618
     36 H          -2.5062   -2.8662    0.8276 H       1  UNL1        0.0625
@<TRIPOS>BOND
     1     1     2   ar
     2     2     3   ar
     3     3     4   ar
     4     4     5   ar
     5     4     6    1
     6     6     7   ar
     7     7     8   ar
     8     8     9   ar
     9     9    10   ar
    10    10    11   ar
    11    10    12   ar
    12    12    13   ar
    13    13    14   ar
    14    14    15   ar
    15    15    16   ar
    16    16    17   ar
    17    17    18   ar
    18    18    19   ar
    19    19    20   ar
    20    20    21   ar
    21    21    22   ar
    22    22    23   ar
    23    23    24   ar
    24    24    25   ar
    25     5     1   ar
    26    11     6   ar
    27    25    13   ar
    28    14     9   ar
    29    19    15   ar
    30    25    20   ar
    31     1    26    1
    32     2    27    1
    33     3    28    1
    34     5    29    1
    35     7    30    1
    36     8    31    1
    37    11    32    1
    38    21    33    1
    39    22    34    1
    40    23    35    1
    41    24    36    1
