@<TRIPOS>MOLECULE
*****
 49 56 0 0 0
SMALL
GASTEIGER

@<TRIPOS>ATOM
      1 SI         -1.5208   -0.1252   -4.1258 Si      1  UNL1        0.0000
      2 C          -2.5181   -0.4259   -2.5908 C.2     1  UNL1        0.0000
      3 C          -1.7440   -0.4200   -1.4855 C.ar    1  UNL1        0.0000
      4 C          -2.2005   -0.7627   -0.1436 C.ar    1  UNL1        0.0000
      5 C          -1.2449   -0.8927    0.8019 C.ar    1  UNL1        0.0000
      6 C           0.2022   -0.6562    0.5896 C.ar    1  UNL1        0.0000
      7 C           0.6485   -0.1094   -0.5852 C.ar    1  UNL1        0.0000
      8 C           2.0332    0.5009   -0.6261 C.ar    1  UNL1        0.0000
      9 C           2.3574    1.4570   -1.5837 C.ar    1  UNL1        0.0000
     10 N           3.5386    2.1077   -1.6889 N.ar    1  UNL1        0.0000
     11 C           4.4488    1.9117   -0.7350 C.ar    1  UNL1        0.0000
     12 C           5.6205    2.6387   -0.8356 C.ar    1  UNL1        0.0000
     13 C           6.5657    2.5505    0.1637 C.ar    1  UNL1        0.0000
     14 N           6.3984    1.8005    1.2612 N.ar    1  UNL1        0.0000
     15 C           5.2449    1.0917    1.3345 C.ar    1  UNL1        0.0000
     16 C           4.2336    1.0504    0.3546 C.ar    1  UNL1        0.0000
     17 C           3.0142    0.2850    0.3736 C.ar    1  UNL1        0.0000
     18 C           2.6321   -0.6745    1.4398 C.ar    1  UNL1        0.0000
     19 C           3.4554   -1.3660    2.2568 C.2     1  UNL1        0.0000
     20 SI          2.5132   -2.3992    3.4972 Si      1  UNL1        0.0000
     21 C           0.9550   -1.8650    2.6347 C.2     1  UNL1        0.0000
     22 C           1.2021   -1.0213    1.6073 C.ar    1  UNL1        0.0000
     23 C          -0.3048   -0.1332   -1.7238 C.ar    1  UNL1        0.0000
     24 C          -0.0016   -0.0284   -3.0368 C.2     1  UNL1        0.0000
     25 C          -3.5620   -0.9580    0.2443 C.ar    1  UNL1        0.0000
     26 S          -4.1408   -2.4877    0.8827 S.2     1  UNL1        0.0000
     27 C          -5.7771   -1.9352    1.0629 C.ar    1  UNL1        0.0000
     28 C          -5.8305   -0.6591    0.6362 C.ar    1  UNL1        0.0000
     29 N          -6.9290    0.1490    0.5996 N.ar    1  UNL1        0.0000
     30 C          -6.3851    1.3207    0.0753 C.ar    1  UNL1        0.0000
     31 C          -5.0035    1.1835   -0.1803 C.ar    1  UNL1        0.0000
     32 C          -4.6379   -0.1361    0.1937 C.ar    1  UNL1        0.0000
     33 H          -1.4864   -1.2972   -5.0328 H       1  UNL1        0.0000
     34 H          -1.8274    1.1764   -4.7658 H       1  UNL1        0.0000
     35 H          -3.5730   -0.6459   -2.6466 H       1  UNL1        0.0000
     36 H          -1.5383   -1.1256    1.8223 H       1  UNL1        0.0000
     37 H           1.6401    1.7967   -2.3233 H       1  UNL1        0.0000
     38 H           5.7852    3.2902   -1.6868 H       1  UNL1        0.0000
     39 H           7.4937    3.1117    0.1126 H       1  UNL1        0.0000
     40 H           5.1515    0.5676    2.2773 H       1  UNL1        0.0000
     41 H           4.5304   -1.4002    2.2739 H       1  UNL1        0.0000
     42 H           2.7852   -3.8481    3.3456 H       1  UNL1        0.0000
     43 H           2.6212   -1.8584    4.8731 H       1  UNL1        0.0000
     44 H           0.0179   -2.3244    2.9040 H       1  UNL1        0.0000
     45 H           0.9661    0.0712   -3.4998 H       1  UNL1        0.0000
     46 H          -6.5627   -2.5660    1.4533 H       1  UNL1        0.0000
     47 H          -7.8757   -0.0698    0.8847 H       1  UNL1        0.0000
     48 H          -7.0312    2.1761   -0.0757 H       1  UNL1        0.0000
     49 H          -4.3600    1.9537   -0.5844 H       1  UNL1        0.0000
@<TRIPOS>BOND
     1     1     2    1
     2     2     3    2
     3     3     4   ar
     4     4     5   ar
     5     5     6   ar
     6     6     7   ar
     7     7     8   ar
     8     8     9   ar
     9     9    10   ar
    10    10    11   ar
    11    11    12   ar
    12    12    13   ar
    13    13    14   ar
    14    14    15   ar
    15    15    16   ar
    16    16    17   ar
    17    17    18   ar
    18    18    19    2
    19    19    20    1
    20    20    21    1
    21    21    22    2
    22     7    23   ar
    23    23    24    2
    24     4    25    1
    25    25    26   ar
    26    26    27   ar
    27    27    28   ar
    28    28    29   ar
    29    29    30   ar
    30    30    31   ar
    31    31    32   ar
    32    24     1    1
    33    32    25   ar
    34    23     3   ar
    35    32    28   ar
    36    22     6   ar
    37    17     8   ar
    38    22    18   ar
    39    16    11   ar
    40     1    33    1
    41     1    34    1
    42     2    35    1
    43     5    36    1
    44     9    37    1
    45    12    38    1
    46    13    39    1
    47    15    40    1
    48    19    41    1
    49    20    42    1
    50    20    43    1
    51    21    44    1
    52    24    45    1
    53    27    46    1
    54    29    47    1
    55    30    48    1
    56    31    49    1
