@<TRIPOS>MOLECULE
*****
 39 45 0 0 0
SMALL
GASTEIGER

@<TRIPOS>ATOM
      1 C           6.5907    0.9149   -0.6387 C.ar    1  UNL1       -0.0438
      2 C           6.4889   -0.0316    0.3498 C.ar    1  UNL1        0.0022
      3 N           5.1588   -0.2943    0.5453 N.ar    1  UNL1       -0.3606
      4 C           4.3799    0.4687   -0.3039 C.ar    1  UNL1        0.0479
      5 C           5.2730    1.2290   -1.0487 C.ar    1  UNL1       -0.0364
      6 C           2.9110    0.4177   -0.3394 C.ar    1  UNL1        0.0170
      7 C           2.1760    1.2072   -1.2137 C.ar    1  UNL1        0.0374
      8 N           0.8179    1.2244   -1.3142 N.ar    1  UNL1       -0.2536
      9 C           0.0564    0.4364   -0.5322 C.ar    1  UNL1        0.0816
     10 C           0.7428   -0.4038    0.3924 C.ar    1  UNL1        0.0124
     11 C           2.1588   -0.4106    0.4855 C.ar    1  UNL1       -0.0413
     12 C          -0.1320   -1.1922    1.1679 C.ar    1  UNL1        0.0297
     13 C           0.2037   -2.0986    2.1410 C.ar    1  UNL1        0.1000
     14 O          -0.9270   -2.6560    2.6581 O.2     1  UNL1       -0.4698
     15 C          -1.9914   -2.0988    2.0080 C.ar    1  UNL1        0.1001
     16 C          -1.5563   -1.1878    1.0770 C.ar    1  UNL1        0.0303
     17 C          -2.2931   -0.3908    0.1946 C.ar    1  UNL1        0.0210
     18 C          -3.6971   -0.3534    0.0701 C.ar    1  UNL1        0.0572
     19 N          -4.7383   -1.0110    0.6981 N.ar    1  UNL1       -0.3601
     20 C          -5.9541   -0.6008    0.1932 C.ar    1  UNL1        0.0028
     21 C          -5.7255    0.3421   -0.7839 C.ar    1  UNL1       -0.0345
     22 C          -4.3356    0.4707   -0.8347 C.ar    1  UNL1        0.0284
     23 C          -3.5695    1.3195   -1.6803 C.ar    1  UNL1        0.1097
     24 N          -4.1503    2.1229   -2.5599 N.ar    1  UNL1       -0.1901
     25 S          -2.8415    2.8767   -3.2728 S.2     1  UNL1        0.1165
     26 N          -1.5922    2.1575   -2.4411 N.ar    1  UNL1       -0.1901
     27 C          -2.1169    1.2822   -1.5530 C.ar    1  UNL1        0.1103
     28 C          -1.4052    0.4365   -0.6210 C.ar    1  UNL1        0.0389
     29 H           7.5103    1.3355   -1.0249 H       1  UNL1        0.0633
     30 H           7.2457   -0.5410    0.9312 H       1  UNL1        0.0807
     31 H           4.8083   -0.9575    1.2210 H       1  UNL1        0.1653
     32 H           5.0127    1.9454   -1.8175 H       1  UNL1        0.0639
     33 H           2.6611    1.8921   -1.9041 H       1  UNL1        0.0836
     34 H           2.6370   -1.0660    1.2033 H       1  UNL1        0.0631
     35 H           1.1290   -2.4546    2.5712 H       1  UNL1        0.1036
     36 H          -2.9464   -2.4714    2.3417 H       1  UNL1        0.1036
     37 H          -4.6425   -1.7000    1.4280 H       1  UNL1        0.1654
     38 H          -6.8756   -1.0190    0.5768 H       1  UNL1        0.0807
     39 H          -6.4716    0.8598   -1.3732 H       1  UNL1        0.0639
@<TRIPOS>BOND
     1     1     2   ar
     2     2     3   ar
     3     3     4   ar
     4     4     5   ar
     5     4     6    1
     6     6     7   ar
     7     7     8   ar
     8     8     9   ar
     9     9    10   ar
    10    10    11   ar
    11    10    12   ar
    12    12    13   ar
    13    13    14   ar
    14    14    15   ar
    15    15    16   ar
    16    16    17   ar
    17    17    18   ar
    18    18    19   ar
    19    19    20   ar
    20    20    21   ar
    21    21    22   ar
    22    22    23   ar
    23    23    24   ar
    24    24    25   ar
    25    25    26   ar
    26    26    27   ar
    27    27    28   ar
    28     5     1   ar
    29    11     6   ar
    30    16    12   ar
    31    28    17   ar
    32    28     9   ar
    33    22    18   ar
    34    27    23   ar
    35     1    29    1
    36     2    30    1
    37     3    31    1
    38     5    32    1
    39     7    33    1
    40    11    34    1
    41    13    35    1
    42    15    36    1
    43    19    37    1
    44    20    38    1
    45    21    39    1
