@<TRIPOS>MOLECULE
*****
 44 51 0 0 0
SMALL
GASTEIGER

@<TRIPOS>ATOM
      1 C          -7.1112    0.3706    0.9560 C.ar    1  UNL1       -0.0438
      2 C          -7.1372   -0.7589    0.1739 C.ar    1  UNL1        0.0022
      3 N          -5.8440   -1.0859   -0.1387 N.ar    1  UNL1       -0.3606
      4 C          -4.9706   -0.1850    0.4363 C.ar    1  UNL1        0.0479
      5 C          -5.7532    0.7358    1.1159 C.ar    1  UNL1       -0.0364
      6 C          -3.5198   -0.2612    0.2777 C.ar    1  UNL1        0.0170
      7 C          -2.8386   -1.4603    0.1870 C.ar    1  UNL1        0.0374
      8 N          -1.4936   -1.5814    0.0287 N.ar    1  UNL1       -0.2537
      9 C          -0.6936   -0.4932   -0.0360 C.ar    1  UNL1        0.0799
     10 C          -1.3264    0.7729    0.0570 C.ar    1  UNL1        0.0098
     11 C          -2.7356    0.8805    0.2118 C.ar    1  UNL1       -0.0414
     12 C          -0.4240    1.8540   -0.0738 C.ar    1  UNL1       -0.0011
     13 C          -0.8391    3.1668   -0.1460 C.ar    1  UNL1       -0.0160
     14 S           0.4576    4.2280   -0.4814 S.2     1  UNL1       -0.1038
     15 C           1.5714    2.9279   -0.5259 C.ar    1  UNL1       -0.0160
     16 C           1.0129    1.7191   -0.1679 C.ar    1  UNL1       -0.0018
     17 C           1.7419    0.4860   -0.1053 C.ar    1  UNL1        0.0028
     18 C           3.2324    0.2941   -0.0137 C.ar    1  UNL1        0.0193
     19 C           4.2067    1.2738    0.4508 C.ar    1  UNL1        0.1082
     20 N           3.9408    2.4666    1.0154 N.ar    1  UNL1       -0.1901
     21 S           5.3735    3.2100    1.3609 S.2     1  UNL1        0.1165
     22 N           6.4386    2.0494    0.8616 N.ar    1  UNL1       -0.1908
     23 C           5.7016    1.0161    0.4260 C.ar    1  UNL1        0.1005
     24 C           6.2403   -0.2055   -0.0091 C.ar    1  UNL1       -0.0329
     25 C           5.3007   -1.1852   -0.3282 C.ar    1  UNL1       -0.0513
     26 C           3.8769   -0.9664   -0.2946 C.ar    1  UNL1       -0.0069
     27 C           2.9196   -1.9930   -0.5066 C.ar    1  UNL1       -0.0024
     28 C           3.2835   -3.2966   -0.7794 C.ar    1  UNL1       -0.0160
     29 S           1.9391   -4.3328   -0.9545 S.2     1  UNL1       -0.1038
     30 C           0.8512   -3.0474   -0.6602 C.ar    1  UNL1       -0.0159
     31 C           1.4744   -1.8385   -0.4194 C.ar    1  UNL1       -0.0005
     32 C           0.7692   -0.6099   -0.1766 C.ar    1  UNL1        0.0175
     33 H          -7.9744    0.8792    1.3658 H       1  UNL1        0.0633
     34 H          -7.9628   -1.3556   -0.1906 H       1  UNL1        0.0807
     35 H          -5.5748   -1.8622   -0.7283 H       1  UNL1        0.1653
     36 H          -5.3842    1.5815    1.6825 H       1  UNL1        0.0639
     37 H          -3.3567   -2.4132    0.2542 H       1  UNL1        0.0836
     38 H          -3.2108    1.8546    0.2689 H       1  UNL1        0.0631
     39 H          -1.8344    3.5804   -0.0724 H       1  UNL1        0.0700
     40 H           2.5813    3.1577   -0.8265 H       1  UNL1        0.0700
     41 H           7.3073   -0.3894   -0.0291 H       1  UNL1        0.0640
     42 H           5.6980   -2.1626   -0.5965 H       1  UNL1        0.0624
     43 H           4.2650   -3.7321   -0.8915 H       1  UNL1        0.0700
     44 H          -0.1991   -3.2888   -0.6995 H       1  UNL1        0.0700
@<TRIPOS>BOND
     1     1     2   ar
     2     2     3   ar
     3     3     4   ar
     4     4     5   ar
     5     4     6    1
     6     6     7   ar
     7     7     8   ar
     8     8     9   ar
     9     9    10   ar
    10    10    11   ar
    11    10    12   ar
    12    12    13   ar
    13    13    14   ar
    14    14    15   ar
    15    15    16   ar
    16    16    17   ar
    17    17    18   ar
    18    18    19   ar
    19    19    20   ar
    20    20    21   ar
    21    21    22   ar
    22    22    23   ar
    23    23    24   ar
    24    24    25   ar
    25    25    26   ar
    26    26    27   ar
    27    27    28   ar
    28    28    29   ar
    29    29    30   ar
    30    30    31   ar
    31    31    32   ar
    32     5     1   ar
    33    11     6   ar
    34    16    12   ar
    35    32    17   ar
    36    32     9   ar
    37    26    18   ar
    38    31    27   ar
    39    23    19   ar
    40     1    33    1
    41     2    34    1
    42     3    35    1
    43     5    36    1
    44     7    37    1
    45    11    38    1
    46    13    39    1
    47    15    40    1
    48    24    41    1
    49    25    42    1
    50    28    43    1
    51    30    44    1
