@<TRIPOS>MOLECULE
*****
 41 47 0 0 0
SMALL
GASTEIGER

@<TRIPOS>ATOM
      1 C           6.9787    0.2836    0.3431 C.ar    1  UNL1       -0.0438
      2 C           6.9016   -1.0879    0.3789 C.ar    1  UNL1        0.0022
      3 N           5.5765   -1.4360    0.3972 N.ar    1  UNL1       -0.3606
      4 C           4.7853   -0.3053    0.3805 C.ar    1  UNL1        0.0479
      5 C           5.6518    0.7759    0.3368 C.ar    1  UNL1       -0.0364
      6 C           3.3228   -0.3499    0.3834 C.ar    1  UNL1        0.0170
      7 C           2.6124   -1.3288    1.0849 C.ar    1  UNL1        0.0375
      8 N           1.2604   -1.4427    1.1232 N.ar    1  UNL1       -0.2506
      9 C           0.5554   -0.5152    0.4329 C.ar    1  UNL1        0.1144
     10 C          -0.8590   -0.6278    0.4798 C.ar    1  UNL1        0.1627
     11 O          -1.5654   -1.6194    1.1242 O.2     1  UNL1       -0.4526
     12 C          -2.8966   -1.3620    0.9437 C.ar    1  UNL1        0.1370
     13 C          -3.9384   -2.1717    1.4390 C.ar    1  UNL1       -0.0181
     14 C          -5.2756   -1.7971    1.2242 C.ar    1  UNL1       -0.0500
     15 C          -5.4125   -0.5827    0.5513 C.ar    1  UNL1       -0.0101
     16 C          -6.6549   -0.0379    0.3167 C.ar    1  UNL1       -0.0166
     17 S          -6.5446    1.5020   -0.4501 S.2     1  UNL1       -0.1039
     18 C          -4.8203    1.4514   -0.4688 C.ar    1  UNL1       -0.0159
     19 C          -4.3871    0.2666    0.0457 C.ar    1  UNL1        0.0005
     20 C          -3.0402   -0.1872    0.2180 C.ar    1  UNL1        0.0368
     21 C          -1.7685    0.2337   -0.1307 C.ar    1  UNL1        0.0398
     22 C          -1.1896    1.2596   -0.9379 C.ar    1  UNL1        0.0115
     23 C          -1.7336    2.1708   -1.7927 C.ar    1  UNL1        0.0101
     24 N          -0.6686    2.8884   -2.3035 N.ar    1  UNL1       -0.3659
     25 C           0.5215    2.3916   -1.8099 C.ar    1  UNL1        0.0101
     26 C           0.2219    1.3462   -0.9644 C.ar    1  UNL1        0.0094
     27 C           1.1655    0.5246   -0.3054 C.ar    1  UNL1        0.0138
     28 C           2.5758    0.5970   -0.3219 C.ar    1  UNL1       -0.0412
     29 H           7.8896    0.8678    0.3215 H       1  UNL1        0.0633
     30 H           7.6729   -1.8464    0.3891 H       1  UNL1        0.0807
     31 H           5.2315   -2.3867    0.3974 H       1  UNL1        0.1653
     32 H           5.3589    1.8180    0.3151 H       1  UNL1        0.0639
     33 H           3.1276   -2.0803    1.6775 H       1  UNL1        0.0836
     34 H          -3.6998   -3.0795    1.9853 H       1  UNL1        0.0655
     35 H          -6.1017   -2.3942    1.5910 H       1  UNL1        0.0625
     36 H          -7.6284   -0.4375    0.5665 H       1  UNL1        0.0699
     37 H          -4.2800    2.3098   -0.8233 H       1  UNL1        0.0700
     38 H          -2.7299    2.3864   -2.1396 H       1  UNL1        0.0813
     39 H          -0.7474    3.6433   -2.9734 H       1  UNL1        0.1648
     40 H           1.4605    2.8207   -2.1328 H       1  UNL1        0.0813
     41 H           3.0716    1.3760   -0.8924 H       1  UNL1        0.0631
@<TRIPOS>BOND
     1     1     2   ar
     2     2     3   ar
     3     3     4   ar
     4     4     5   ar
     5     4     6    1
     6     6     7   ar
     7     7     8   ar
     8     8     9   ar
     9     9    10   ar
    10    10    11   ar
    11    11    12   ar
    12    12    13   ar
    13    13    14   ar
    14    14    15   ar
    15    15    16   ar
    16    16    17   ar
    17    17    18   ar
    18    18    19   ar
    19    19    20   ar
    20    20    21   ar
    21    21    22   ar
    22    22    23   ar
    23    23    24   ar
    24    24    25   ar
    25    25    26   ar
    26    26    27   ar
    27    27    28   ar
    28     5     1   ar
    29    28     6   ar
    30    27     9   ar
    31    21    10   ar
    32    26    22   ar
    33    20    12   ar
    34    19    15   ar
    35     1    29    1
    36     2    30    1
    37     3    31    1
    38     5    32    1
    39     7    33    1
    40    13    34    1
    41    14    35    1
    42    16    36    1
    43    18    37    1
    44    23    38    1
    45    24    39    1
    46    25    40    1
    47    28    41    1
