@<TRIPOS>MOLECULE
*****
 41 47 0 0 0
SMALL
GASTEIGER

@<TRIPOS>ATOM
      1 C          -7.4607    0.9808   -1.2146 C.ar    1  UNL1       -0.0438
      2 C          -7.6601    0.1924   -0.1062 C.ar    1  UNL1        0.0022
      3 N          -6.4314   -0.1753    0.3744 N.ar    1  UNL1       -0.3594
      4 C          -5.4287    0.3628   -0.4061 C.ar    1  UNL1        0.0671
      5 C          -6.0621    1.0883   -1.4035 C.ar    1  UNL1       -0.0349
      6 C          -4.0121    0.1542   -0.1532 C.ar    1  UNL1        0.1151
      7 N          -3.1307    0.7426   -1.0006 N.ar    1  UNL1       -0.2506
      8 C          -1.7781    0.5853   -0.8178 C.ar    1  UNL1        0.0388
      9 C          -1.0738   -0.1369    0.1733 C.ar    1  UNL1        0.0371
     10 C           0.4124   -0.2126    0.2383 C.ar    1  UNL1        0.0509
     11 S           1.3236    0.6316   -0.9671 S.2     1  UNL1       -0.0836
     12 C           2.8935    0.1878   -0.3905 C.ar    1  UNL1        0.0509
     13 C           4.0810    0.6941   -1.1317 C.ar    1  UNL1        0.0371
     14 C           3.9986    1.5168   -2.2812 C.ar    1  UNL1        0.0380
     15 N           5.0007    2.0531   -3.0593 N.ar    1  UNL1       -0.2604
     16 C           6.3005    1.8132   -2.7589 C.ar    1  UNL1        0.0557
     17 C           6.5790    1.0093   -1.6412 C.ar    1  UNL1        0.1185
     18 N           7.8069    0.6775   -1.2103 N.ar    1  UNL1       -0.1892
     19 S           7.5884   -0.2724    0.1256 S.2     1  UNL1        0.1165
     20 N           5.9433   -0.2988    0.2078 N.ar    1  UNL1       -0.1900
     21 C           5.4453    0.4322   -0.8022 C.ar    1  UNL1        0.1110
     22 C           2.7169   -0.6086    0.7281 C.ar    1  UNL1        0.1046
     23 N           3.7440   -1.1411    1.4439 N.ar    1  UNL1       -0.2508
     24 C           3.3319   -1.8835    2.4938 C.ar    1  UNL1        0.0464
     25 C           2.0029   -2.0981    2.8309 C.ar    1  UNL1        0.0464
     26 N           0.9500   -1.5923    2.1527 N.ar    1  UNL1       -0.2508
     27 C           1.3159   -0.8348    1.0833 C.ar    1  UNL1        0.1046
     28 C          -1.9824   -0.7658    1.0782 C.ar    1  UNL1        0.1117
     29 N          -1.7025   -1.5327    2.1433 N.ar    1  UNL1       -0.1900
     30 S          -3.1084   -2.0094    2.8488 S.2     1  UNL1        0.1166
     31 N          -4.2057   -1.2770    1.8543 N.ar    1  UNL1       -0.1885
     32 C          -3.4960   -0.6188    0.9140 C.ar    1  UNL1        0.1278
     33 H          -8.2351    1.4305   -1.8223 H       1  UNL1        0.0633
     34 H          -8.5668   -0.1387    0.3819 H       1  UNL1        0.0807
     35 H          -6.2673   -0.7595    1.1870 H       1  UNL1        0.1654
     36 H          -5.5561    1.6387   -2.1873 H       1  UNL1        0.0639
     37 H          -1.2359    1.1283   -1.5925 H       1  UNL1        0.0837
     38 H           3.0261    1.8159   -2.6735 H       1  UNL1        0.0836
     39 H           7.0598    2.2512   -3.3928 H       1  UNL1        0.0852
     40 H           4.1288   -2.3227    3.0860 H       1  UNL1        0.0845
     41 H           1.7444   -2.7079    3.6911 H       1  UNL1        0.0845
@<TRIPOS>BOND
     1     1     2   ar
     2     2     3   ar
     3     3     4   ar
     4     4     5   ar
     5     4     6    1
     6     6     7   ar
     7     7     8   ar
     8     8     9   ar
     9     9    10    1
    10    10    11   ar
    11    11    12   ar
    12    12    13    1
    13    13    14   ar
    14    14    15   ar
    15    15    16   ar
    16    16    17   ar
    17    17    18   ar
    18    18    19   ar
    19    19    20   ar
    20    20    21   ar
    21    12    22   ar
    22    22    23   ar
    23    23    24   ar
    24    24    25   ar
    25    25    26   ar
    26    26    27   ar
    27     9    28   ar
    28    28    29   ar
    29    29    30   ar
    30    30    31   ar
    31    31    32   ar
    32     5     1   ar
    33    32     6   ar
    34    27    10   ar
    35    32    28   ar
    36    21    13   ar
    37    27    22   ar
    38    21    17   ar
    39     1    33    1
    40     2    34    1
    41     3    35    1
    42     5    36    1
    43     8    37    1
    44    14    38    1
    45    16    39    1
    46    24    40    1
    47    25    41    1
