@<TRIPOS>MOLECULE
*****
 43 48 0 0 0
SMALL
GASTEIGER

@<TRIPOS>ATOM
      1 C           7.3317   -0.0433    1.6020 C.ar    1  UNL1       -0.0438
      2 C           6.6868   -0.9608    2.3970 C.ar    1  UNL1        0.0022
      3 N           5.3614   -0.9529    2.0530 N.ar    1  UNL1       -0.3602
      4 C           5.1346   -0.0501    1.0355 C.ar    1  UNL1        0.0542
      5 C           6.3565    0.5319    0.7489 C.ar    1  UNL1       -0.0359
      6 C           3.8291    0.1608    0.4772 C.ar    1  UNL1        0.0503
      7 S           2.3815   -0.2024    1.3550 S.2     1  UNL1       -0.0850
      8 C           1.3438    0.3039    0.0802 C.ar    1  UNL1        0.0288
      9 C          -0.0928    0.2309    0.2332 C.ar    1  UNL1       -0.0015
     10 C          -0.8379    0.9582    1.1912 C.ar    1  UNL1       -0.0523
     11 C          -2.2690    0.8870    1.3158 C.ar    1  UNL1       -0.0527
     12 C          -3.1128    0.0782    0.5049 C.ar    1  UNL1       -0.0073
     13 C          -4.5598    0.0057    0.6453 C.ar    1  UNL1        0.0009
     14 C          -5.3620    1.1504    0.5688 C.ar    1  UNL1       -0.0511
     15 C          -6.7447    1.0517    0.7154 C.ar    1  UNL1       -0.0430
     16 C          -7.2936   -0.1988    0.9409 C.ar    1  UNL1        0.0276
     17 N          -6.5648   -1.3300    1.0297 N.ar    1  UNL1       -0.2627
     18 C          -5.2227   -1.1985    0.8841 C.ar    1  UNL1        0.0353
     19 C          -2.3524   -0.6322   -0.4367 C.ar    1  UNL1        0.0077
     20 C          -2.8103   -1.4912   -1.4078 C.ar    1  UNL1        0.0100
     21 N          -1.7120   -1.9633   -2.0934 N.ar    1  UNL1       -0.3659
     22 C          -0.5587   -1.4064   -1.5863 C.ar    1  UNL1        0.0100
     23 C          -0.9254   -0.5596   -0.5672 C.ar    1  UNL1        0.0082
     24 C           2.1273    0.7187   -0.9442 C.ar    1  UNL1        0.0046
     25 C           1.8401    1.2440   -2.2310 C.ar    1  UNL1       -0.0459
     26 C           2.9937    1.5291   -2.9661 C.ar    1  UNL1       -0.0231
     27 S           4.5219    1.1919   -2.1732 S.2     1  UNL1       -0.0954
     28 C           3.5125    0.6508   -0.7658 C.ar    1  UNL1        0.0361
     29 H           8.3875    0.1925    1.6325 H       1  UNL1        0.0633
     30 H           7.0532   -1.6136    3.1778 H       1  UNL1        0.0807
     31 H           4.6432   -1.5259    2.4758 H       1  UNL1        0.1653
     32 H           6.5420    1.3015    0.0118 H       1  UNL1        0.0639
     33 H          -0.3061    1.6196    1.8765 H       1  UNL1        0.0624
     34 H          -2.7287    1.4920    2.0997 H       1  UNL1        0.0624
     35 H          -4.9141    2.1238    0.3828 H       1  UNL1        0.0625
     36 H          -7.3768    1.9302    0.6526 H       1  UNL1        0.0633
     37 H          -8.3655   -0.3270    1.0605 H       1  UNL1        0.0829
     38 H          -4.6699   -2.1307    0.9769 H       1  UNL1        0.0836
     39 H          -3.8042   -1.8182   -1.6833 H       1  UNL1        0.0813
     40 H          -1.7482   -2.6227   -2.8603 H       1  UNL1        0.1648
     41 H           0.4039   -1.6685   -2.0048 H       1  UNL1        0.0813
     42 H           0.8439    1.4109   -2.6233 H       1  UNL1        0.0629
     43 H           3.0376    1.9323   -3.9686 H       1  UNL1        0.0694
@<TRIPOS>BOND
     1     1     2   ar
     2     2     3   ar
     3     3     4   ar
     4     4     5   ar
     5     4     6    1
     6     6     7   ar
     7     7     8   ar
     8     8     9    1
     9     9    10   ar
    10    10    11   ar
    11    11    12   ar
    12    12    13    1
    13    13    14   ar
    14    14    15   ar
    15    15    16   ar
    16    16    17   ar
    17    17    18   ar
    18    12    19   ar
    19    19    20   ar
    20    20    21   ar
    21    21    22   ar
    22    22    23   ar
    23     8    24   ar
    24    24    25   ar
    25    25    26   ar
    26    26    27   ar
    27    27    28   ar
    28     5     1   ar
    29    28     6   ar
    30    23     9   ar
    31    28    24   ar
    32    18    13   ar
    33    23    19   ar
    34     1    29    1
    35     2    30    1
    36     3    31    1
    37     5    32    1
    38    10    33    1
    39    11    34    1
    40    14    35    1
    41    15    36    1
    42    16    37    1
    43    18    38    1
    44    20    39    1
    45    21    40    1
    46    22    41    1
    47    25    42    1
    48    26    43    1
