@<TRIPOS>MOLECULE
*****
 43 48 0 0 0
SMALL
GASTEIGER

@<TRIPOS>ATOM
      1 C           6.6621    2.2146    0.9888 C.ar    1  UNL1       -0.0438
      2 C           7.1364    0.9557    0.7018 C.ar    1  UNL1        0.0022
      3 N           6.0577    0.1459    0.4668 N.ar    1  UNL1       -0.3602
      4 C           4.8871    0.8612    0.5976 C.ar    1  UNL1        0.0553
      5 C           5.2470    2.1568    0.9235 C.ar    1  UNL1       -0.0359
      6 C           3.5974    0.2476    0.4027 C.ar    1  UNL1        0.0635
      7 S           2.1386    1.1462    0.5741 S.2     1  UNL1       -0.0824
      8 C           1.1362   -0.2001    0.2047 C.ar    1  UNL1        0.0480
      9 C          -0.3069   -0.0241    0.1939 C.ar    1  UNL1       -0.0009
     10 C          -1.0625    0.3049    1.3438 C.ar    1  UNL1       -0.0523
     11 C          -2.4828    0.4747    1.3411 C.ar    1  UNL1       -0.0528
     12 C          -3.3040    0.3322    0.1926 C.ar    1  UNL1       -0.0082
     13 C          -4.7496    0.5002    0.2192 C.ar    1  UNL1        0.0008
     14 C          -5.3367    1.7438    0.4767 C.ar    1  UNL1       -0.0511
     15 C          -6.7241    1.8715    0.5004 C.ar    1  UNL1       -0.0430
     16 C          -7.4916    0.7428    0.2684 C.ar    1  UNL1        0.0276
     17 N          -6.9721   -0.4777    0.0225 N.ar    1  UNL1       -0.2627
     18 C          -5.6200   -0.5693    0.0079 C.ar    1  UNL1        0.0353
     19 C          -2.5492    0.0150   -0.9549 C.ar    1  UNL1       -0.0025
     20 C          -3.0857   -0.1390   -2.2137 C.ar    1  UNL1       -0.0160
     21 S          -1.8833   -0.5088   -3.3813 S.2     1  UNL1       -0.1038
     22 C          -0.6271   -0.4458   -2.2137 C.ar    1  UNL1       -0.0160
     23 C          -1.1070   -0.1588   -0.9558 C.ar    1  UNL1       -0.0020
     24 C           1.8979   -1.3207   -0.0399 C.ar    1  UNL1        0.1046
     25 N           1.3673   -2.5391   -0.3527 N.ar    1  UNL1       -0.2508
     26 C           2.3423   -3.4656   -0.5434 C.ar    1  UNL1        0.0464
     27 C           3.7154   -3.2210   -0.4375 C.ar    1  UNL1        0.0464
     28 N           4.2794   -2.0207   -0.1276 N.ar    1  UNL1       -0.2507
     29 C           3.3166   -1.0647    0.0720 C.ar    1  UNL1        0.1059
     30 H           7.2664    3.0822    1.2200 H       1  UNL1        0.0633
     31 H           8.1437    0.5662    0.6439 H       1  UNL1        0.0807
     32 H           6.0893   -0.8397    0.2291 H       1  UNL1        0.1653
     33 H           4.5692    2.9825    1.0978 H       1  UNL1        0.0639
     34 H          -0.5437    0.4294    2.2955 H       1  UNL1        0.0624
     35 H          -2.9586    0.7183    2.2932 H       1  UNL1        0.0624
     36 H          -4.7158    2.6197    0.6508 H       1  UNL1        0.0625
     37 H          -7.1937    2.8295    0.6935 H       1  UNL1        0.0633
     38 H          -8.5768    0.7919    0.2753 H       1  UNL1        0.0829
     39 H          -5.2396   -1.5702   -0.1841 H       1  UNL1        0.0836
     40 H          -4.1159   -0.0543   -2.5320 H       1  UNL1        0.0700
     41 H           0.3906   -0.6265   -2.5304 H       1  UNL1        0.0700
     42 H           1.9828   -4.4595   -0.7959 H       1  UNL1        0.0845
     43 H           4.4236   -4.0274   -0.6085 H       1  UNL1        0.0845
@<TRIPOS>BOND
     1     1     2   ar
     2     2     3   ar
     3     3     4   ar
     4     4     5   ar
     5     4     6    1
     6     6     7   ar
     7     7     8   ar
     8     8     9    1
     9     9    10   ar
    10    10    11   ar
    11    11    12   ar
    12    12    13    1
    13    13    14   ar
    14    14    15   ar
    15    15    16   ar
    16    16    17   ar
    17    17    18   ar
    18    12    19   ar
    19    19    20   ar
    20    20    21   ar
    21    21    22   ar
    22    22    23   ar
    23     8    24   ar
    24    24    25   ar
    25    25    26   ar
    26    26    27   ar
    27    27    28   ar
    28    28    29   ar
    29     5     1   ar
    30    29     6   ar
    31    23     9   ar
    32    29    24   ar
    33    18    13   ar
    34    23    19   ar
    35     1    30    1
    36     2    31    1
    37     3    32    1
    38     5    33    1
    39    10    34    1
    40    11    35    1
    41    14    36    1
    42    15    37    1
    43    16    38    1
    44    18    39    1
    45    20    40    1
    46    22    41    1
    47    26    42    1
    48    27    43    1
