@<TRIPOS>MOLECULE
*****
 43 48 0 0 0
SMALL
GASTEIGER

@<TRIPOS>ATOM
      1 C          -7.6319    0.6790    0.5180 C.ar    1  UNL1       -0.0438
      2 C          -7.1523    1.7835   -0.1465 C.ar    1  UNL1        0.0022
      3 N          -5.8022    1.6203   -0.3127 N.ar    1  UNL1       -0.3602
      4 C          -5.4028    0.4126    0.2147 C.ar    1  UNL1        0.0552
      5 C          -6.5304   -0.1814    0.7520 C.ar    1  UNL1       -0.0359
      6 C          -4.0429   -0.0278    0.1731 C.ar    1  UNL1        0.0599
      7 S          -2.6849    1.0511    0.2439 S.2     1  UNL1       -0.0840
      8 C          -1.5008   -0.2273    0.1812 C.ar    1  UNL1        0.0306
      9 C          -0.0690    0.0538    0.2444 C.ar    1  UNL1        0.0075
     10 C           0.7897   -0.7556    0.9898 C.ar    1  UNL1       -0.0500
     11 C           2.1580   -0.4773    1.0314 C.ar    1  UNL1       -0.0351
     12 C           2.6574    0.6072    0.3144 C.ar    1  UNL1        0.0717
     13 N           1.8420    1.4178   -0.4033 N.ar    1  UNL1       -0.2543
     14 C           0.5173    1.1216   -0.4278 C.ar    1  UNL1        0.0365
     15 C           4.0655    0.9810    0.3141 C.ar    1  UNL1        0.0110
     16 C           4.5383    2.3175    0.4669 C.ar    1  UNL1       -0.0519
     17 C           5.9261    2.7086    0.4845 C.ar    1  UNL1       -0.0604
     18 C           7.0045    1.8090    0.3405 C.ar    1  UNL1       -0.0510
     19 C           6.5287    0.5173    0.1696 C.ar    1  UNL1        0.0205
     20 C           7.2805   -0.6087   -0.0311 C.ar    1  UNL1        0.0994
     21 O           6.4523   -1.6852   -0.1900 O.2     1  UNL1       -0.4698
     22 C           5.1640   -1.2334   -0.0915 C.ar    1  UNL1        0.1000
     23 C           5.1567    0.1173    0.1543 C.ar    1  UNL1        0.0290
     24 C          -2.1885   -1.3899    0.0899 C.ar    1  UNL1        0.0151
     25 C          -1.9797   -2.7893   -0.0285 C.ar    1  UNL1       -0.0355
     26 C          -3.2505   -3.3951   -0.1071 C.ar    1  UNL1        0.0028
     27 N          -4.2723   -2.4508   -0.0492 N.ar    1  UNL1       -0.3597
     28 C          -3.5637   -1.2883    0.0766 C.ar    1  UNL1        0.0635
     29 H          -8.6604    0.5143    0.8124 H       1  UNL1        0.0633
     30 H          -7.6505    2.6740   -0.5061 H       1  UNL1        0.0807
     31 H          -5.1820    2.2813   -0.7619 H       1  UNL1        0.1653
     32 H          -6.5653   -1.1257    1.2787 H       1  UNL1        0.0639
     33 H           0.4037   -1.5971    1.5601 H       1  UNL1        0.0625
     34 H           2.8115   -1.0948    1.6396 H       1  UNL1        0.0639
     35 H          -0.0717    1.7980   -1.0417 H       1  UNL1        0.0836
     36 H           3.7943    3.1096    0.5812 H       1  UNL1        0.0624
     37 H           6.1500    3.7686    0.6125 H       1  UNL1        0.0618
     38 H           8.0418    2.1110    0.3478 H       1  UNL1        0.0625
     39 H           8.3381   -0.8199   -0.0994 H       1  UNL1        0.1035
     40 H           4.4048   -1.9904   -0.2267 H       1  UNL1        0.1036
     41 H          -1.0355   -3.3159   -0.0696 H       1  UNL1        0.0639
     42 H          -3.5102   -4.4408   -0.2127 H       1  UNL1        0.0807
     43 H          -5.2774   -2.5595   -0.1054 H       1  UNL1        0.1654
@<TRIPOS>BOND
     1     1     2   ar
     2     2     3   ar
     3     3     4   ar
     4     4     5   ar
     5     4     6    1
     6     6     7   ar
     7     7     8   ar
     8     8     9    1
     9     9    10   ar
    10    10    11   ar
    11    11    12   ar
    12    12    13   ar
    13    13    14   ar
    14    12    15    1
    15    15    16   ar
    16    16    17   ar
    17    17    18   ar
    18    18    19   ar
    19    19    20   ar
    20    20    21   ar
    21    21    22   ar
    22    22    23   ar
    23     8    24   ar
    24    24    25   ar
    25    25    26   ar
    26    26    27   ar
    27    27    28   ar
    28     5     1   ar
    29    28     6   ar
    30    14     9   ar
    31    23    15   ar
    32    28    24   ar
    33    23    19   ar
    34     1    29    1
    35     2    30    1
    36     3    31    1
    37     5    32    1
    38    10    33    1
    39    11    34    1
    40    14    35    1
    41    16    36    1
    42    17    37    1
    43    18    38    1
    44    20    39    1
    45    22    40    1
    46    25    41    1
    47    26    42    1
    48    27    43    1
