@<TRIPOS>MOLECULE
*****
 37 41 0 0 0
SMALL
GASTEIGER

@<TRIPOS>ATOM
      1 C           6.8123    1.6138   -1.1553 C.ar    1  UNL1       -0.0438
      2 C           7.0939    0.9728    0.0269 C.ar    1  UNL1        0.0022
      3 N           5.9134    0.5072    0.5424 N.ar    1  UNL1       -0.3602
      4 C           4.8624    0.8344   -0.2859 C.ar    1  UNL1        0.0542
      5 C           5.4123    1.5277   -1.3530 C.ar    1  UNL1       -0.0359
      6 C           3.4928    0.4839   -0.0171 C.ar    1  UNL1        0.0503
      7 S           2.2084    0.9114   -1.0769 S.2     1  UNL1       -0.0845
      8 C           0.9720    0.1766   -0.1083 C.ar    1  UNL1        0.0348
      9 C          -0.4184    0.2185   -0.5255 C.ar    1  UNL1        0.0271
     10 C          -0.9374    0.8023   -1.6678 C.ar    1  UNL1       -0.0458
     11 C          -2.3534    0.6641   -1.7786 C.ar    1  UNL1       -0.0463
     12 C          -2.9207   -0.0259   -0.7213 C.ar    1  UNL1        0.0199
     13 S          -1.6871   -0.4857    0.3829 S.2     1  UNL1       -0.0877
     14 C          -4.3466   -0.3666   -0.4832 C.ar    1  UNL1       -0.0113
     15 C          -4.7791   -1.0808    0.6489 C.ar    1  UNL1       -0.0535
     16 C          -6.1306   -1.3884    0.8479 C.ar    1  UNL1       -0.0612
     17 C          -7.0831   -0.9883   -0.0822 C.ar    1  UNL1       -0.0617
     18 C          -6.6846   -0.2810   -1.2105 C.ar    1  UNL1       -0.0612
     19 C          -5.3328    0.0252   -1.4071 C.ar    1  UNL1       -0.0535
     20 C           1.5988   -0.3595    0.9771 C.ar    1  UNL1        0.0051
     21 C           1.1688   -1.0852    2.1296 C.ar    1  UNL1       -0.0458
     22 C           2.2107   -1.4339    2.9927 C.ar    1  UNL1       -0.0231
     23 S           3.8115   -0.9295    2.5141 S.2     1  UNL1       -0.0954
     24 C           2.9922   -0.2068    1.0574 C.ar    1  UNL1        0.0361
     25 H           7.5327    2.0918   -1.8064 H       1  UNL1        0.0633
     26 H           8.0284    0.8070    0.5461 H       1  UNL1        0.0807
     27 H           5.8208   -0.0058    1.4096 H       1  UNL1        0.1653
     28 H           4.8667    1.9349   -2.1948 H       1  UNL1        0.0639
     29 H          -0.3394    1.3157   -2.4111 H       1  UNL1        0.0629
     30 H          -2.9149    1.0643   -2.6128 H       1  UNL1        0.0629
     31 H          -4.0764   -1.4173    1.4066 H       1  UNL1        0.0624
     32 H          -6.4339   -1.9419    1.7330 H       1  UNL1        0.0618
     33 H          -8.1320   -1.2268    0.0720 H       1  UNL1        0.0618
     34 H          -7.4234    0.0354   -1.9425 H       1  UNL1        0.0618
     35 H          -5.0712    0.5795   -2.3040 H       1  UNL1        0.0624
     36 H           0.1476   -1.3612    2.3554 H       1  UNL1        0.0629
     37 H           2.1191   -1.9819    3.9209 H       1  UNL1        0.0694
@<TRIPOS>BOND
     1     1     2   ar
     2     2     3   ar
     3     3     4   ar
     4     4     5   ar
     5     4     6    1
     6     6     7   ar
     7     7     8   ar
     8     8     9    1
     9     9    10   ar
    10    10    11   ar
    11    11    12   ar
    12    12    13   ar
    13    12    14    1
    14    14    15   ar
    15    15    16   ar
    16    16    17   ar
    17    17    18   ar
    18    18    19   ar
    19     8    20   ar
    20    20    21   ar
    21    21    22   ar
    22    22    23   ar
    23    23    24   ar
    24     5     1   ar
    25    24     6   ar
    26    13     9   ar
    27    19    14   ar
    28    24    20   ar
    29     1    25    1
    30     2    26    1
    31     3    27    1
    32     5    28    1
    33    10    29    1
    34    11    30    1
    35    15    31    1
    36    16    32    1
    37    17    33    1
    38    18    34    1
    39    19    35    1
    40    21    36    1
    41    22    37    1
