@<TRIPOS>MOLECULE
*****
 36 41 0 0 0
SMALL
GASTEIGER

@<TRIPOS>ATOM
      1 C          -6.3753   -1.1745    0.3518 C.ar    1  UNL1       -0.0438
      2 C          -5.7237   -2.3327    0.7043 C.ar    1  UNL1        0.0022
      3 N          -4.3788   -2.1171    0.5601 N.ar    1  UNL1       -0.3602
      4 C          -4.1467   -0.8363    0.1072 C.ar    1  UNL1        0.0537
      5 C          -5.3844   -0.2322   -0.0207 C.ar    1  UNL1       -0.0359
      6 C          -2.8272   -0.3278   -0.1424 C.ar    1  UNL1        0.0443
      7 S          -1.4263   -1.0352    0.5861 S.2     1  UNL1       -0.0845
      8 C          -0.3440    0.0847   -0.1398 C.ar    1  UNL1        0.0414
      9 C           1.0666    0.0698    0.0853 C.ar    1  UNL1        0.0359
     10 S           2.0498   -1.2695   -0.3577 S.2     1  UNL1       -0.0839
     11 C           3.5114   -0.5304    0.1977 C.ar    1  UNL1        0.0591
     12 C           4.8102   -1.1424    0.1031 C.ar    1  UNL1        0.1159
     13 N           5.9249   -0.4396    0.0622 N.ar    1  UNL1       -0.2468
     14 C           7.0192   -1.2758   -0.0239 C.ar    1  UNL1        0.0355
     15 C           6.7354   -2.6219   -0.0495 C.ar    1  UNL1       -0.0042
     16 S           5.0417   -2.8528    0.0380 S.2     1  UNL1       -0.0751
     17 C           3.2376    0.7106    0.7184 C.ar    1  UNL1        0.0367
     18 S           4.2881    1.9796    1.4805 S.2     1  UNL1       -0.0954
     19 C           2.8051    2.8965    1.6714 C.ar    1  UNL1       -0.0231
     20 C           1.6366    2.2882    1.2049 C.ar    1  UNL1       -0.0458
     21 C           1.8734    1.0076    0.6378 C.ar    1  UNL1        0.0052
     22 C          -1.0270    0.9626   -0.9367 C.ar    1  UNL1        0.0352
     23 S          -0.4625    2.3302   -1.9810 S.2     1  UNL1       -0.0955
     24 C          -2.1567    2.5254   -2.3880 C.ar    1  UNL1       -0.0231
     25 C          -3.0466    1.6321   -1.7827 C.ar    1  UNL1       -0.0458
     26 C          -2.4021    0.7059   -0.9151 C.ar    1  UNL1        0.0060
     27 H          -7.4466   -1.0203    0.3656 H       1  UNL1        0.0633
     28 H          -6.0979   -3.2875    1.0487 H       1  UNL1        0.0807
     29 H          -3.6529   -2.7949    0.7522 H       1  UNL1        0.1653
     30 H          -5.5687    0.7858   -0.3353 H       1  UNL1        0.0639
     31 H           8.0121   -0.8447   -0.0656 H       1  UNL1        0.0835
     32 H           7.4209   -3.4544   -0.1131 H       1  UNL1        0.0709
     33 H           2.8854    3.8689    2.1382 H       1  UNL1        0.0694
     34 H           0.6670    2.7660    1.2807 H       1  UNL1        0.0629
     35 H          -2.4083    3.3146   -3.0837 H       1  UNL1        0.0694
     36 H          -4.1096    1.6614   -1.9844 H       1  UNL1        0.0629
@<TRIPOS>BOND
     1     1     2   ar
     2     2     3   ar
     3     3     4   ar
     4     4     5   ar
     5     4     6    1
     6     6     7   ar
     7     7     8   ar
     8     8     9    1
     9     9    10   ar
    10    10    11   ar
    11    11    12    1
    12    12    13   ar
    13    13    14   ar
    14    14    15   ar
    15    15    16   ar
    16    11    17   ar
    17    17    18   ar
    18    18    19   ar
    19    19    20   ar
    20    20    21   ar
    21     8    22   ar
    22    22    23   ar
    23    23    24   ar
    24    24    25   ar
    25    25    26   ar
    26     5     1   ar
    27    26     6   ar
    28    21     9   ar
    29    26    22   ar
    30    16    12   ar
    31    21    17   ar
    32     1    27    1
    33     2    28    1
    34     3    29    1
    35     5    30    1
    36    14    31    1
    37    15    32    1
    38    19    33    1
    39    20    34    1
    40    24    35    1
    41    25    36    1
