@<TRIPOS>MOLECULE
*****
 33 38 0 0 0
SMALL
GASTEIGER

@<TRIPOS>ATOM
      1 C           4.8707   -0.6184   -0.4202 C.ar    1  UNL1       -0.0463
      2 C           5.4381    0.5093   -0.9866 C.ar    1  UNL1       -0.0231
      3 S           4.3021    1.7931   -1.1851 S.2     1  UNL1       -0.0955
      4 C           3.0495    0.8477   -0.5430 C.ar    1  UNL1        0.0342
      5 C           3.5037   -0.3906   -0.1822 C.ar    1  UNL1       -0.0015
      6 C           2.5490   -1.2494    0.4421 C.ar    1  UNL1       -0.0020
      7 C           2.8887   -2.4692    0.9645 C.ar    1  UNL1       -0.0160
      8 S           1.5338   -3.1549    1.7815 S.2     1  UNL1       -0.1038
      9 C           0.5336   -1.7924    1.4214 C.ar    1  UNL1       -0.0160
     10 C           1.1916   -0.8970    0.6189 C.ar    1  UNL1       -0.0014
     11 C           0.6283    0.3462    0.1330 C.ar    1  UNL1        0.0068
     12 C           1.5572    1.2402   -0.3403 C.ar    1  UNL1        0.0354
     13 S           0.8810    2.7598   -0.5977 S.2     1  UNL1       -0.0871
     14 C          -0.6898    2.2049   -0.1266 C.ar    1  UNL1        0.0211
     15 C          -1.8289    3.0199   -0.0008 C.ar    1  UNL1       -0.0468
     16 C          -3.0562    2.4315    0.2870 C.ar    1  UNL1       -0.0529
     17 C          -3.1864    1.0478    0.3438 C.ar    1  UNL1       -0.0172
     18 C          -4.4571    0.4733    0.5100 C.ar    1  UNL1       -0.0540
     19 C          -4.6310   -0.9084    0.4590 C.ar    1  UNL1       -0.0612
     20 C          -3.5401   -1.7304    0.2122 C.ar    1  UNL1       -0.0611
     21 C          -2.2672   -1.1741    0.0635 C.ar    1  UNL1       -0.0534
     22 C          -2.0445    0.2165    0.1879 C.ar    1  UNL1       -0.0091
     23 C          -0.7304    0.8128    0.0850 C.ar    1  UNL1        0.0052
     24 H           5.4302   -1.5184   -0.2021 H       1  UNL1        0.0629
     25 H           6.4667    0.6555   -1.2869 H       1  UNL1        0.0694
     26 H           3.8351   -2.9911    0.9621 H       1  UNL1        0.0700
     27 H          -0.4552   -1.7520    1.8527 H       1  UNL1        0.0700
     28 H          -1.7562    4.0963   -0.1322 H       1  UNL1        0.0629
     29 H          -3.9274    3.0750    0.3939 H       1  UNL1        0.0624
     30 H          -5.3328    1.1030    0.6547 H       1  UNL1        0.0624
     31 H          -5.6228   -1.3371    0.5757 H       1  UNL1        0.0618
     32 H          -3.6767   -2.8049    0.1195 H       1  UNL1        0.0618
     33 H          -1.4562   -1.8444   -0.2048 H       1  UNL1        0.0624
@<TRIPOS>BOND
     1     1     2   ar
     2     2     3   ar
     3     3     4   ar
     4     4     5   ar
     5     5     6   ar
     6     6     7   ar
     7     7     8   ar
     8     8     9   ar
     9     9    10   ar
    10    10    11   ar
    11    11    12   ar
    12    12    13   ar
    13    13    14   ar
    14    14    15   ar
    15    15    16   ar
    16    16    17   ar
    17    17    18   ar
    18    18    19   ar
    19    19    20   ar
    20    20    21   ar
    21    21    22   ar
    22    22    23   ar
    23     1     5   ar
    24    10     6   ar
    25    11    23   ar
    26    12     4   ar
    27    23    14   ar
    28    22    17   ar
    29     1    24    1
    30     2    25    1
    31     7    26    1
    32     9    27    1
    33    15    28    1
    34    16    29    1
    35    18    30    1
    36    19    31    1
    37    20    32    1
    38    21    33    1
