@<TRIPOS>MOLECULE
*****
 43 49 0 0 0
SMALL
GASTEIGER

@<TRIPOS>ATOM
      1 SI          2.9274   -1.6234    3.1851 Si      1  UNL1        0.0000
      2 C           3.6334   -0.8498    1.6518 C.2     1  UNL1        0.0000
      3 C           2.6714   -0.3874    0.8235 C.ar    1  UNL1        0.0000
      4 C           2.9229    0.1210   -0.5303 C.ar    1  UNL1        0.0000
      5 C           1.8559    0.2739   -1.3448 C.ar    1  UNL1        0.0000
      6 C           0.4784    0.0928   -0.8736 C.ar    1  UNL1        0.0000
      7 C          -0.6318    0.2687   -1.6976 C.ar    1  UNL1        0.0000
      8 C          -0.6158    0.5155   -3.0506 C.ar    1  UNL1        0.0000
      9 N          -1.9184    0.6527   -3.4558 N.ar    1  UNL1        0.0000
     10 C          -2.7622    0.5150   -2.3744 C.ar    1  UNL1        0.0000
     11 C          -1.9986    0.2321   -1.2637 C.ar    1  UNL1        0.0000
     12 C          -2.4327    0.0535    0.0901 C.ar    1  UNL1        0.0000
     13 C          -3.7818    0.0122    0.6364 C.ar    1  UNL1        0.0000
     14 C          -4.9960   -0.0520   -0.0702 C.ar    1  UNL1        0.0000
     15 N          -6.2353   -0.0717    0.4788 N.ar    1  UNL1        0.0000
     16 C          -6.2916   -0.0411    1.8176 C.ar    1  UNL1        0.0000
     17 C          -5.1681   -0.0062    2.6159 C.ar    1  UNL1        0.0000
     18 C          -3.9149    0.0105    2.0320 C.ar    1  UNL1        0.0000
     19 N          -2.8646    0.0326    2.8523 N.ar    1  UNL1        0.0000
     20 C          -1.6208   -0.0031    2.3101 C.ar    1  UNL1        0.0000
     21 C          -1.2854   -0.0615    0.9551 C.ar    1  UNL1        0.0000
     22 C           0.1075   -0.1628    0.4816 C.ar    1  UNL1        0.0000
     23 C           1.2786   -0.5689    1.3351 C.ar    1  UNL1        0.0000
     24 C           1.2294   -1.2668    2.4918 C.2     1  UNL1        0.0000
     25 C           4.2021    0.4365   -1.1082 C.ar    1  UNL1        0.0000
     26 N           4.6633    0.0077   -2.2726 N.ar    1  UNL1        0.0000
     27 C           5.9114    0.5363   -2.5302 C.ar    1  UNL1        0.0000
     28 C           6.4007    1.3964   -1.5757 C.ar    1  UNL1        0.0000
     29 S           5.2642    1.5587   -0.3083 S.2     1  UNL1        0.0000
     30 H           3.2065   -3.0760    3.2763 H       1  UNL1        0.0000
     31 H           3.2105   -0.8327    4.4064 H       1  UNL1        0.0000
     32 H           4.6961   -0.8847    1.4716 H       1  UNL1        0.0000
     33 H           1.9984    0.6117   -2.3669 H       1  UNL1        0.0000
     34 H           0.1872    0.6118   -3.7687 H       1  UNL1        0.0000
     35 H          -2.2153    0.8580   -4.4018 H       1  UNL1        0.0000
     36 H          -3.8163    0.6653   -2.5404 H       1  UNL1        0.0000
     37 H          -5.0264   -0.1339   -1.1476 H       1  UNL1        0.0000
     38 H          -7.2881   -0.0539    2.2483 H       1  UNL1        0.0000
     39 H          -5.2650    0.0052    3.6961 H       1  UNL1        0.0000
     40 H          -0.8545    0.0804    3.0749 H       1  UNL1        0.0000
     41 H           0.3731   -1.6603    3.0127 H       1  UNL1        0.0000
     42 H           6.4239    0.2603   -3.4437 H       1  UNL1        0.0000
     43 H           7.3412    1.9275   -1.5663 H       1  UNL1        0.0000
@<TRIPOS>BOND
     1     1     2    1
     2     2     3    2
     3     3     4   ar
     4     4     5   ar
     5     5     6   ar
     6     6     7   ar
     7     7     8   ar
     8     8     9   ar
     9     9    10   ar
    10    10    11   ar
    11    11    12   ar
    12    12    13   ar
    13    13    14   ar
    14    14    15   ar
    15    15    16   ar
    16    16    17   ar
    17    17    18   ar
    18    18    19   ar
    19    19    20   ar
    20    20    21   ar
    21    21    22   ar
    22    22    23   ar
    23    23    24    2
    24     4    25    1
    25    25    26   ar
    26    26    27   ar
    27    27    28   ar
    28    28    29   ar
    29    24     1    1
    30    29    25   ar
    31    23     3   ar
    32    22     6   ar
    33    11     7   ar
    34    21    12   ar
    35    18    13   ar
    36     1    30    1
    37     1    31    1
    38     2    32    1
    39     5    33    1
    40     8    34    1
    41     9    35    1
    42    10    36    1
    43    14    37    1
    44    16    38    1
    45    17    39    1
    46    20    40    1
    47    24    41    1
    48    27    42    1
    49    28    43    1
