@<TRIPOS>MOLECULE
*****
 36 41 0 0 0
SMALL
GASTEIGER

@<TRIPOS>ATOM
      1 C          -4.7774   -0.8716   -0.3242 C.ar    1  UNL1       -0.0464
      2 C          -5.4414    0.2511   -0.7625 C.ar    1  UNL1       -0.0231
      3 S          -4.4115    1.6128   -0.8936 S.2     1  UNL1       -0.0960
      4 C          -3.0000    0.7203   -0.3894 C.ar    1  UNL1        0.0276
      5 C          -3.4146   -0.5750   -0.1288 C.ar    1  UNL1       -0.0020
      6 C          -2.4300   -1.4687    0.3906 C.ar    1  UNL1       -0.0020
      7 C          -2.6976   -2.7308    0.8401 C.ar    1  UNL1       -0.0160
      8 S          -1.2777   -3.3772    1.5549 S.2     1  UNL1       -0.1038
      9 C          -0.3889   -1.9329    1.2398 C.ar    1  UNL1       -0.0160
     10 C          -1.0908   -1.0082    0.4879 C.ar    1  UNL1       -0.0019
     11 C          -0.5511    0.2593    0.0872 C.ar    1  UNL1       -0.0003
     12 C          -1.6300    1.1510   -0.2295 C.ar    1  UNL1       -0.0024
     13 C          -1.3537    2.5179   -0.3639 C.ar    1  UNL1       -0.0523
     14 C          -0.0666    3.0027   -0.1563 C.ar    1  UNL1       -0.0534
     15 C           1.0160    2.1404    0.0428 C.ar    1  UNL1       -0.0167
     16 C           2.2792    2.7094    0.2292 C.ar    1  UNL1       -0.0534
     17 C           3.4131    1.9167    0.3392 C.ar    1  UNL1       -0.0534
     18 C           3.3249    0.5416    0.1488 C.ar    1  UNL1       -0.0173
     19 C           4.5062   -0.2203    0.1244 C.ar    1  UNL1       -0.0540
     20 C           4.4792   -1.5746   -0.1906 C.ar    1  UNL1       -0.0612
     21 C           3.2724   -2.1691   -0.5165 C.ar    1  UNL1       -0.0611
     22 C           2.0933   -1.4178   -0.4723 C.ar    1  UNL1       -0.0534
     23 C           2.0573   -0.0603   -0.0677 C.ar    1  UNL1       -0.0096
     24 C           0.8408    0.7337    0.0353 C.ar    1  UNL1       -0.0018
     25 H          -5.2672   -1.8224   -0.1604 H       1  UNL1        0.0629
     26 H          -6.4917    0.3469   -1.0020 H       1  UNL1        0.0694
     27 H          -3.6195   -3.2940    0.8456 H       1  UNL1        0.0700
     28 H           0.6122   -1.8658    1.6412 H       1  UNL1        0.0700
     29 H          -2.1380    3.2422   -0.5691 H       1  UNL1        0.0624
     30 H           0.0866    4.0804   -0.1943 H       1  UNL1        0.0624
     31 H           2.3976    3.7899    0.2883 H       1  UNL1        0.0624
     32 H           4.3758    2.3981    0.4962 H       1  UNL1        0.0624
     33 H           5.4686    0.2477    0.3220 H       1  UNL1        0.0624
     34 H           5.4008   -2.1488   -0.2205 H       1  UNL1        0.0618
     35 H           3.2391   -3.2125   -0.8190 H       1  UNL1        0.0618
     36 H           1.1844   -1.9121   -0.8074 H       1  UNL1        0.0624
@<TRIPOS>BOND
     1     1     2   ar
     2     2     3   ar
     3     3     4   ar
     4     4     5   ar
     5     5     6   ar
     6     6     7   ar
     7     7     8   ar
     8     8     9   ar
     9     9    10   ar
    10    10    11   ar
    11    11    12   ar
    12    12    13   ar
    13    13    14   ar
    14    14    15   ar
    15    15    16   ar
    16    16    17   ar
    17    17    18   ar
    18    18    19   ar
    19    19    20   ar
    20    20    21   ar
    21    21    22   ar
    22    22    23   ar
    23    23    24   ar
    24     1     5   ar
    25    10     6   ar
    26    24    11   ar
    27    12     4   ar
    28    24    15   ar
    29    23    18   ar
    30     1    25    1
    31     2    26    1
    32     7    27    1
    33     9    28    1
    34    13    29    1
    35    14    30    1
    36    16    31    1
    37    17    32    1
    38    19    33    1
    39    20    34    1
    40    21    35    1
    41    22    36    1
