@<TRIPOS>MOLECULE
*****
 35 38 0 0 0
SMALL
GASTEIGER

@<TRIPOS>ATOM
      1 C          -3.1583   -1.8394    0.5244 C.ar    1  UNL1       -0.0598
      2 C          -2.4244   -0.6529    0.4608 C.ar    1  UNL1       -0.0378
      3 C          -1.1622   -0.6404   -0.1468 C.ar    1  UNL1        0.0486
      4 N          -0.4081    0.5680   -0.2067 N.ar    1  UNL1       -0.2921
      5 C           0.9722    0.7190   -0.0256 C.ar    1  UNL1        0.1463
      6 C           1.9166   -0.3108    0.4271 C.ar    1  UNL1        0.0179
      7 C           1.6645   -1.0996    1.5594 C.ar    1  UNL1       -0.0497
      8 C           2.5895   -2.0632    1.9732 C.ar    1  UNL1       -0.0427
      9 C           3.7786   -2.2309    1.2667 C.ar    1  UNL1        0.0410
     10 CL          4.9149   -3.4178    1.7759 Cl      1  UNL1       -0.0835
     11 C           4.0555   -1.4388    0.1552 C.ar    1  UNL1       -0.0427
     12 C           3.1294   -0.4771   -0.2579 C.ar    1  UNL1       -0.0497
     13 N           1.3442    1.9668   -0.2508 N.ar    1  UNL1       -0.2272
     14 C           0.2019    2.6639   -0.5143 C.ar    1  UNL1        0.0900
     15 C           0.0563    4.0315   -0.7959 C.ar    1  UNL1       -0.0342
     16 C          -1.2164    4.5359   -1.0776 C.ar    1  UNL1       -0.0596
     17 C          -2.3227    3.6901   -1.0949 C.ar    1  UNL1       -0.0597
     18 C          -2.1942    2.3236   -0.8177 C.ar    1  UNL1       -0.0357
     19 C          -0.9148    1.8336   -0.4972 C.ar    1  UNL1        0.0739
     20 C          -0.6444   -1.8238   -0.6906 C.ar    1  UNL1       -0.0378
     21 C          -1.3850   -3.0059   -0.6248 C.ar    1  UNL1       -0.0598
     22 C          -2.6396   -3.0136   -0.0182 C.ar    1  UNL1       -0.0616
     23 H          -4.1331   -1.8498    1.0063 H       1  UNL1        0.0618
     24 H          -2.8369    0.2351    0.9333 H       1  UNL1        0.0638
     25 H           0.7506   -0.9681    2.1347 H       1  UNL1        0.0625
     26 H           2.3781   -2.6713    2.8487 H       1  UNL1        0.0632
     27 H           4.9886   -1.5564   -0.3892 H       1  UNL1        0.0632
     28 H           3.3572    0.1518   -1.1174 H       1  UNL1        0.0625
     29 H           0.9276    4.6777   -0.8007 H       1  UNL1        0.0639
     30 H          -1.3376    5.5933   -1.2999 H       1  UNL1        0.0618
     31 H          -3.3027    4.0952   -1.3398 H       1  UNL1        0.0618
     32 H          -3.0634    1.6772   -0.8758 H       1  UNL1        0.0639
     33 H           0.3152   -1.8460   -1.2015 H       1  UNL1        0.0638
     34 H          -0.9842   -3.9211   -1.0542 H       1  UNL1        0.0618
     35 H          -3.2131   -3.9359    0.0320 H       1  UNL1        0.0618
@<TRIPOS>BOND
     1     1     2   ar
     2     2     3   ar
     3     3     4    1
     4     4     5   ar
     5     5     6    1
     6     6     7   ar
     7     7     8   ar
     8     8     9   ar
     9     9    10    1
    10     9    11   ar
    11    11    12   ar
    12     5    13   ar
    13    13    14   ar
    14    14    15   ar
    15    15    16   ar
    16    16    17   ar
    17    17    18   ar
    18    18    19   ar
    19     3    20   ar
    20    20    21   ar
    21    21    22   ar
    22    22     1   ar
    23    19     4   ar
    24    12     6   ar
    25    19    14   ar
    26     1    23    1
    27     2    24    1
    28     7    25    1
    29     8    26    1
    30    11    27    1
    31    12    28    1
    32    15    29    1
    33    16    30    1
    34    17    31    1
    35    18    32    1
    36    20    33    1
    37    21    34    1
    38    22    35    1
