@<TRIPOS>MOLECULE
*****
 39 42 0 0 0
SMALL
GASTEIGER

@<TRIPOS>ATOM
      1 C          -2.8006    2.5554    0.8478 C.ar    1  UNL1       -0.0598
      2 C          -2.0161    1.4001    0.8386 C.ar    1  UNL1       -0.0378
      3 C          -0.8681    1.3377    0.0374 C.ar    1  UNL1        0.0486
      4 N          -0.0643    0.1599    0.0230 N.ar    1  UNL1       -0.2921
      5 C          -0.5005   -1.1704    0.0482 C.ar    1  UNL1        0.1463
      6 C          -1.8868   -1.6416   -0.0678 C.ar    1  UNL1        0.0178
      7 C          -2.3585   -2.6118    0.8275 C.ar    1  UNL1       -0.0511
      8 C          -3.6686   -3.0868    0.7372 C.ar    1  UNL1       -0.0611
      9 C          -4.5163   -2.6062   -0.2587 C.ar    1  UNL1       -0.0617
     10 C          -4.0525   -1.6596   -1.1705 C.ar    1  UNL1       -0.0611
     11 C          -2.7414   -1.1851   -1.0813 C.ar    1  UNL1       -0.0511
     12 N           0.5248   -2.0008    0.1256 N.ar    1  UNL1       -0.2271
     13 C           1.6483   -1.2281    0.0848 C.ar    1  UNL1        0.0935
     14 C           2.9921   -1.6312    0.1154 C.ar    1  UNL1        0.0075
     15 C           4.0050   -0.6661    0.1045 C.ar    1  UNL1        0.1222
     16 O           5.2744   -1.1783    0.1360 O.3     1  UNL1       -0.4950
     17 C           6.3486   -0.2474    0.1127 C.3     1  UNL1        0.0788
     18 C           3.6711    0.6874    0.0794 C.ar    1  UNL1       -0.0179
     19 C           2.3325    1.1083    0.0492 C.ar    1  UNL1       -0.0323
     20 C           1.3297    0.1239    0.0212 C.ar    1  UNL1        0.0741
     21 C          -0.5163    2.4398   -0.7529 C.ar    1  UNL1       -0.0378
     22 C          -1.3068    3.5911   -0.7400 C.ar    1  UNL1       -0.0598
     23 C          -2.4463    3.6490    0.0601 C.ar    1  UNL1       -0.0616
     24 H          -3.6872    2.6024    1.4756 H       1  UNL1        0.0618
     25 H          -2.3044    0.5776    1.4893 H       1  UNL1        0.0638
     26 H          -1.6976   -3.0049    1.5981 H       1  UNL1        0.0625
     27 H          -4.0218   -3.8379    1.4390 H       1  UNL1        0.0618
     28 H          -5.5346   -2.9793   -0.3324 H       1  UNL1        0.0618
     29 H          -4.7082   -1.2958   -1.9575 H       1  UNL1        0.0618
     30 H          -2.3938   -0.4618   -1.8153 H       1  UNL1        0.0625
     31 H           3.2339   -2.6880    0.1557 H       1  UNL1        0.0676
     32 H           6.3352    0.3489   -0.8057 H       1  UNL1        0.0660
     33 H           6.3349    0.3927    1.0010 H       1  UNL1        0.0660
     34 H           7.2837   -0.8155    0.1267 H       1  UNL1        0.0660
     35 H           4.4357    1.4584    0.0953 H       1  UNL1        0.0655
     36 H           2.1010    2.1680    0.0703 H       1  UNL1        0.0640
     37 H           0.3391    2.4089   -1.4229 H       1  UNL1        0.0638
     38 H          -1.0387    4.4410   -1.3630 H       1  UNL1        0.0618
     39 H          -3.0605    4.5461    0.0686 H       1  UNL1        0.0618
@<TRIPOS>BOND
     1     1     2   ar
     2     2     3   ar
     3     3     4    1
     4     4     5   ar
     5     5     6    1
     6     6     7   ar
     7     7     8   ar
     8     8     9   ar
     9     9    10   ar
    10    10    11   ar
    11     5    12   ar
    12    12    13   ar
    13    13    14   ar
    14    14    15   ar
    15    15    16    1
    16    16    17    1
    17    15    18   ar
    18    18    19   ar
    19    19    20   ar
    20     3    21   ar
    21    21    22   ar
    22    22    23   ar
    23    23     1   ar
    24    20     4   ar
    25    11     6   ar
    26    20    13   ar
    27     1    24    1
    28     2    25    1
    29     7    26    1
    30     8    27    1
    31     9    28    1
    32    10    29    1
    33    11    30    1
    34    14    31    1
    35    17    32    1
    36    17    33    1
    37    17    34    1
    38    18    35    1
    39    19    36    1
    40    21    37    1
    41    22    38    1
    42    23    39    1
