@<TRIPOS>MOLECULE
*****
 42 45 0 0 0
SMALL
GASTEIGER

@<TRIPOS>ATOM
      1 C           1.8393    1.0413   -0.8196 C.ar    1  UNL1       -0.0387
      2 C           0.5305    0.5370   -0.8700 C.ar    1  UNL1       -0.0360
      3 C           0.0796   -0.3417    0.1140 C.ar    1  UNL1        0.0487
      4 N          -1.2513   -0.8490    0.0804 N.ar    1  UNL1       -0.2921
      5 C          -2.4171   -0.1587   -0.2751 C.ar    1  UNL1        0.1464
      6 C          -2.5451    1.2814   -0.5323 C.ar    1  UNL1        0.0207
      7 C          -1.9970    2.2406    0.3223 C.ar    1  UNL1       -0.0329
      8 C          -2.1710    3.5789    0.0107 C.ar    1  UNL1        0.0282
      9 N          -2.8549    4.0168   -1.0673 N.ar    1  UNL1       -0.2632
     10 C          -3.4066    3.0741   -1.8600 C.ar    1  UNL1        0.0282
     11 C          -3.2843    1.7139   -1.6357 C.ar    1  UNL1       -0.0329
     12 N          -3.4591   -0.9713   -0.2928 N.ar    1  UNL1       -0.2272
     13 C          -3.0025   -2.1875    0.1225 C.ar    1  UNL1        0.0900
     14 C          -3.7226   -3.3797    0.2981 C.ar    1  UNL1       -0.0342
     15 C          -3.0417   -4.5326    0.6992 C.ar    1  UNL1       -0.0596
     16 C          -1.6648   -4.5027    0.9058 C.ar    1  UNL1       -0.0597
     17 C          -0.9317   -3.3223    0.7335 C.ar    1  UNL1       -0.0357
     18 C          -1.6329   -2.1586    0.3673 C.ar    1  UNL1        0.0739
     19 C           0.9487   -0.7053    1.1409 C.ar    1  UNL1       -0.0360
     20 C           2.2535   -0.1897    1.1760 C.ar    1  UNL1       -0.0387
     21 C           2.7469    0.6881    0.1943 C.ar    1  UNL1        0.0293
     22 N           4.0437    1.2108    0.2536 N.pl3   1  UNL1       -0.3360
     23 C           4.5614    1.9727   -0.8818 C.3     1  UNL1        0.0004
     24 C           5.0487    0.5072    1.0500 C.3     1  UNL1        0.0004
     25 H           2.1276    1.7221   -1.6154 H       1  UNL1        0.0637
     26 H          -0.0965    0.8297   -1.7089 H       1  UNL1        0.0639
     27 H          -1.4481    1.9650    1.2162 H       1  UNL1        0.0640
     28 H          -1.7543    4.3582    0.6427 H       1  UNL1        0.0830
     29 H          -3.9709    3.4523   -2.7075 H       1  UNL1        0.0830
     30 H          -3.7602    1.0030   -2.3038 H       1  UNL1        0.0640
     31 H          -4.7915   -3.3972    0.1143 H       1  UNL1        0.0639
     32 H          -3.5913   -5.4608    0.8347 H       1  UNL1        0.0618
     33 H          -1.1468   -5.4152    1.1948 H       1  UNL1        0.0618
     34 H           0.1453   -3.3323    0.8618 H       1  UNL1        0.0639
     35 H           0.6279   -1.3431    1.9606 H       1  UNL1        0.0639
     36 H           2.8725   -0.4853    2.0182 H       1  UNL1        0.0637
     37 H           5.5666    2.3570   -0.6748 H       1  UNL1        0.0428
     38 H           3.9415    2.8525   -1.0856 H       1  UNL1        0.0428
     39 H           4.6229    1.3480   -1.7796 H       1  UNL1        0.0428
     40 H           5.1564   -0.5321    0.7200 H       1  UNL1        0.0428
     41 H           6.0320    0.9832    0.9627 H       1  UNL1        0.0428
     42 H           4.7974    0.5312    2.1156 H       1  UNL1        0.0428
@<TRIPOS>BOND
     1     1     2   ar
     2     2     3   ar
     3     3     4    1
     4     4     5   ar
     5     5     6    1
     6     6     7   ar
     7     7     8   ar
     8     8     9   ar
     9     9    10   ar
    10    10    11   ar
    11     5    12   ar
    12    12    13   ar
    13    13    14   ar
    14    14    15   ar
    15    15    16   ar
    16    16    17   ar
    17    17    18   ar
    18     3    19   ar
    19    19    20   ar
    20    20    21   ar
    21    21    22    1
    22    22    23    1
    23    22    24    1
    24    21     1   ar
    25    18     4   ar
    26    11     6   ar
    27    18    13   ar
    28     1    25    1
    29     2    26    1
    30     7    27    1
    31     8    28    1
    32    10    29    1
    33    11    30    1
    34    14    31    1
    35    15    32    1
    36    16    33    1
    37    17    34    1
    38    19    35    1
    39    20    36    1
    40    23    37    1
    41    23    38    1
    42    23    39    1
    43    24    40    1
    44    24    41    1
    45    24    42    1
