@<TRIPOS>MOLECULE
*****
 40 43 0 0 0
SMALL
GASTEIGER

@<TRIPOS>ATOM
      1 C           1.7890   -0.8073    0.7657 C.ar    1  UNL1       -0.0387
      2 C           0.4159   -0.5103    0.7750 C.ar    1  UNL1       -0.0360
      3 C          -0.0742    0.6025    0.0902 C.ar    1  UNL1        0.0502
      4 N          -1.4702    0.9119    0.0900 N.ar    1  UNL1       -0.2754
      5 C          -2.5585    0.0295    0.2145 C.ar    1  UNL1        0.1493
      6 C          -2.5228   -1.4340    0.0977 C.ar    1  UNL1        0.0208
      7 C          -3.2232   -2.2124    1.0218 C.ar    1  UNL1       -0.0329
      8 C          -3.1904   -3.5894    0.8871 C.ar    1  UNL1        0.0282
      9 N          -2.5222   -4.2299   -0.0952 N.ar    1  UNL1       -0.2632
     10 C          -1.8800   -3.4588   -0.9973 C.ar    1  UNL1        0.0282
     11 C          -1.8568   -2.0749   -0.9500 C.ar    1  UNL1       -0.0329
     12 N          -3.6956    0.6856    0.3880 N.ar    1  UNL1       -0.2063
     13 C          -3.3848    1.9955    0.2285 C.ar    1  UNL1        0.1983
     14 N          -4.2640    3.0270    0.2769 N.ar    1  UNL1       -0.2316
     15 C          -3.6757    4.2283    0.0853 C.ar    1  UNL1        0.0482
     16 C          -2.3160    4.3998   -0.1365 C.ar    1  UNL1        0.0481
     17 N          -1.4211    3.3843   -0.1855 N.ar    1  UNL1       -0.2326
     18 C          -2.0258    2.1819    0.0002 C.ar    1  UNL1        0.1846
     19 C           0.8406    1.4260   -0.5653 C.ar    1  UNL1       -0.0360
     20 C           2.2108    1.1141   -0.5654 C.ar    1  UNL1       -0.0387
     21 C           2.7290   -0.0194    0.0818 C.ar    1  UNL1        0.0293
     22 N           4.0953   -0.3186    0.0886 N.pl3   1  UNL1       -0.3360
     23 C           4.9889    0.3989   -0.8187 C.3     1  UNL1        0.0004
     24 C           4.5225   -1.6665    0.4617 C.3     1  UNL1        0.0004
     25 H           2.1017   -1.6784    1.3345 H       1  UNL1        0.0637
     26 H          -0.2255   -1.1532    1.3717 H       1  UNL1        0.0639
     27 H          -3.7892   -1.7545    1.8273 H       1  UNL1        0.0640
     28 H          -3.7193   -4.2324    1.5849 H       1  UNL1        0.0830
     29 H          -1.3696   -4.0002   -1.7891 H       1  UNL1        0.0830
     30 H          -1.3310   -1.5206   -1.7201 H       1  UNL1        0.0640
     31 H          -4.3453    5.0819    0.1162 H       1  UNL1        0.0846
     32 H          -1.9002    5.3923   -0.2808 H       1  UNL1        0.0846
     33 H           0.5288    2.3110   -1.1141 H       1  UNL1        0.0639
     34 H           2.8629    1.7999   -1.0983 H       1  UNL1        0.0637
     35 H           4.7153    0.2188   -1.8642 H       1  UNL1        0.0428
     36 H           6.0286    0.0779   -0.6884 H       1  UNL1        0.0428
     37 H           4.9807    1.4751   -0.6153 H       1  UNL1        0.0428
     38 H           4.2689   -1.8881    1.5038 H       1  UNL1        0.0428
     39 H           5.6105   -1.7748    0.3884 H       1  UNL1        0.0428
     40 H           4.0719   -2.4185   -0.1954 H       1  UNL1        0.0428
@<TRIPOS>BOND
     1     1     2   ar
     2     2     3   ar
     3     3     4    1
     4     4     5   ar
     5     5     6    1
     6     6     7   ar
     7     7     8   ar
     8     8     9   ar
     9     9    10   ar
    10    10    11   ar
    11     5    12   ar
    12    12    13   ar
    13    13    14   ar
    14    14    15   ar
    15    15    16   ar
    16    16    17   ar
    17    17    18   ar
    18     3    19   ar
    19    19    20   ar
    20    20    21   ar
    21    21    22    1
    22    22    23    1
    23    22    24    1
    24    21     1   ar
    25    18     4   ar
    26    11     6   ar
    27    18    13   ar
    28     1    25    1
    29     2    26    1
    30     7    27    1
    31     8    28    1
    32    10    29    1
    33    11    30    1
    34    15    31    1
    35    16    32    1
    36    19    33    1
    37    20    34    1
    38    23    35    1
    39    23    36    1
    40    23    37    1
    41    24    38    1
    42    24    39    1
    43    24    40    1
