@<TRIPOS>MOLECULE
*****
 47 53 0 0 0
SMALL
GASTEIGER

@<TRIPOS>ATOM
      1 C           2.0692    3.5454    0.3218 C.3     1  UNL1       -0.0148
      2 C           2.7590    2.6312   -0.6463 C.2     1  UNL1       -0.0719
      3 C           2.0697    1.4834   -0.7522 C.ar    1  UNL1       -0.0133
      4 C           2.3245    0.3412   -1.6391 C.ar    1  UNL1       -0.0071
      5 C           1.4349   -0.6832   -1.6429 C.ar    1  UNL1       -0.0294
      6 C           0.3320   -0.5914   -0.7472 C.ar    1  UNL1        0.0487
      7 N          -0.6409   -1.5469   -0.6896 N.ar    1  UNL1       -0.3536
      8 C          -1.5532   -1.2016    0.2790 C.ar    1  UNL1        0.0559
      9 C          -1.1015   -0.0266    0.8911 C.ar    1  UNL1        0.0160
     10 C           0.0333    0.4100    0.1701 C.ar    1  UNL1        0.0154
     11 C           0.9061    1.5371    0.1566 C.ar    1  UNL1       -0.0115
     12 C           0.8765    2.7384    0.7468 C.2     1  UNL1       -0.0719
     13 C          -1.8388    0.4511    2.0148 C.ar    1  UNL1       -0.0114
     14 C          -1.5797    1.4048    2.9200 C.2     1  UNL1       -0.0719
     15 C          -2.6819    1.4674    3.9337 C.3     1  UNL1       -0.0148
     16 C          -3.5883    0.3570    3.4977 C.2     1  UNL1       -0.0719
     17 C          -3.0846   -0.2352    2.4007 C.ar    1  UNL1       -0.0134
     18 C          -3.5817   -1.4316    1.6840 C.ar    1  UNL1       -0.0085
     19 C          -4.7747   -2.0834    2.0200 C.ar    1  UNL1       -0.0534
     20 C          -5.1769   -3.2218    1.3188 C.ar    1  UNL1       -0.0611
     21 C          -4.3934   -3.7181    0.2783 C.ar    1  UNL1       -0.0611
     22 C          -3.2022   -3.0790   -0.0728 C.ar    1  UNL1       -0.0520
     23 C          -2.7852   -1.9365    0.6208 C.ar    1  UNL1        0.0066
     24 C           3.4724    0.2522   -2.5516 C.ar    1  UNL1        0.0009
     25 C           4.6318   -0.4373   -2.1906 C.ar    1  UNL1       -0.0511
     26 C           5.7026   -0.4941   -3.0794 C.ar    1  UNL1       -0.0430
     27 C           5.5767    0.1449   -4.3030 C.ar    1  UNL1        0.0276
     28 N           4.4739    0.8237   -4.6870 N.ar    1  UNL1       -0.2627
     29 C           3.4490    0.8639   -3.8016 C.ar    1  UNL1        0.0353
     30 H           2.7130    3.7779    1.1751 H       1  UNL1        0.0350
     31 H           1.7594    4.4726   -0.1693 H       1  UNL1        0.0350
     32 H           3.6507    2.8943   -1.1950 H       1  UNL1        0.0581
     33 H           1.5554   -1.5486   -2.2870 H       1  UNL1        0.0644
     34 H          -0.6886   -2.3707   -1.2710 H       1  UNL1        0.1659
     35 H           0.1120    3.1217    1.3972 H       1  UNL1        0.0581
     36 H          -0.7018    2.0216    2.9735 H       1  UNL1        0.0581
     37 H          -3.1938    2.4336    3.9033 H       1  UNL1        0.0350
     38 H          -2.2977    1.2854    4.9417 H       1  UNL1        0.0350
     39 H          -4.4784    0.0712    4.0351 H       1  UNL1        0.0581
     40 H          -5.4025   -1.7172    2.8267 H       1  UNL1        0.0624
     41 H          -6.1045   -3.7220    1.5860 H       1  UNL1        0.0618
     42 H          -4.7137   -4.6040   -0.2646 H       1  UNL1        0.0618
     43 H          -2.6207   -3.4850   -0.8936 H       1  UNL1        0.0624
     44 H           4.7048   -0.9238   -1.2213 H       1  UNL1        0.0625
     45 H           6.6141   -1.0219   -2.8225 H       1  UNL1        0.0633
     46 H           6.3853    0.1283   -5.0283 H       1  UNL1        0.0829
     47 H           2.5783    1.4217   -4.1371 H       1  UNL1        0.0836
@<TRIPOS>BOND
     1     1     2    1
     2     2     3    2
     3     3     4   ar
     4     4     5   ar
     5     5     6   ar
     6     6     7   ar
     7     7     8   ar
     8     8     9   ar
     9     9    10   ar
    10    10    11   ar
    11    11    12    2
    12     9    13   ar
    13    13    14    2
    14    14    15    1
    15    15    16    1
    16    16    17    2
    17    17    18   ar
    18    18    19   ar
    19    19    20   ar
    20    20    21   ar
    21    21    22   ar
    22    22    23   ar
    23     4    24    1
    24    24    25   ar
    25    25    26   ar
    26    26    27   ar
    27    27    28   ar
    28    28    29   ar
    29    12     1    1
    30    17    13   ar
    31    23    18   ar
    32    29    24   ar
    33    11     3   ar
    34    10     6   ar
    35    23     8   ar
    36     1    30    1
    37     1    31    1
    38     2    32    1
    39     5    33    1
    40     7    34    1
    41    12    35    1
    42    14    36    1
    43    15    37    1
    44    15    38    1
    45    16    39    1
    46    19    40    1
    47    20    41    1
    48    21    42    1
    49    22    43    1
    50    25    44    1
    51    26    45    1
    52    27    46    1
    53    29    47    1
