@<TRIPOS>MOLECULE
*****
 48 55 0 0 0
SMALL
GASTEIGER

@<TRIPOS>ATOM
      1 C           3.2176   -2.8693   -1.1780 C.3     1  UNL1       -0.0148
      2 C           3.7904   -1.5588   -0.7331 C.2     1  UNL1       -0.0719
      3 C           2.8008   -0.7388   -0.3416 C.ar    1  UNL1       -0.0137
      4 C           2.9080    0.6126    0.2375 C.ar    1  UNL1       -0.0122
      5 C           1.7538    1.2285    0.6018 C.ar    1  UNL1       -0.0298
      6 C           0.5294    0.5374    0.3797 C.ar    1  UNL1        0.0487
      7 N          -0.6757    1.0718    0.7435 N.ar    1  UNL1       -0.3536
      8 C          -1.7068    0.2259    0.3768 C.ar    1  UNL1        0.0567
      9 C          -1.0658   -0.8465   -0.2585 C.ar    1  UNL1        0.0193
     10 C          -1.9241   -1.8288   -0.8383 C.ar    1  UNL1        0.0302
     11 C          -1.6736   -2.9144   -1.6180 C.ar    1  UNL1        0.1001
     12 O          -2.8704   -3.5108   -1.9203 O.2     1  UNL1       -0.4698
     13 C          -3.8575   -2.7606   -1.3409 C.ar    1  UNL1        0.1000
     14 C          -3.3170   -1.6846   -0.6723 C.ar    1  UNL1        0.0283
     15 C          -4.0356   -0.6734   -0.0042 C.ar    1  UNL1       -0.0045
     16 C          -5.4868   -0.6099    0.1235 C.ar    1  UNL1       -0.0526
     17 C          -6.1736    0.4285    0.7846 C.ar    1  UNL1       -0.0504
     18 C          -5.2770    1.3612    1.2847 C.ar    1  UNL1        0.0205
     19 C          -5.6076    2.4899    1.9844 C.ar    1  UNL1        0.0994
     20 O          -4.4691    3.1611    2.3239 O.2     1  UNL1       -0.4698
     21 C          -3.4076    2.4490    1.8337 C.ar    1  UNL1        0.1000
     22 C          -3.8475    1.3277    1.1740 C.ar    1  UNL1        0.0295
     23 C          -3.1188    0.3184    0.5259 C.ar    1  UNL1        0.0174
     24 C           0.3247   -0.7097   -0.1958 C.ar    1  UNL1        0.0155
     25 C           1.5050   -1.4244   -0.5472 C.ar    1  UNL1       -0.0115
     26 C           1.7430   -2.6672   -0.9841 C.2     1  UNL1       -0.0719
     27 C           4.1574    1.3062    0.4643 C.2     1  UNL1       -0.0359
     28 C           4.5990    2.4141   -0.1540 C.2     1  UNL1       -0.0580
     29 C           5.8831    2.7833    0.3838 C.2     1  UNL1       -0.0651
     30 C           6.2364    1.9087    1.3365 C.2     1  UNL1       -0.0797
     31 C           5.1670    0.8625    1.4905 C.3     1  UNL1       -0.0086
     32 H           3.4536   -3.0695   -2.2272 H       1  UNL1        0.0350
     33 H           3.5861   -3.6894   -0.5547 H       1  UNL1        0.0350
     34 H           4.8469   -1.3415   -0.7112 H       1  UNL1        0.0581
     35 H           1.7560    2.2182    1.0482 H       1  UNL1        0.0644
     36 H          -0.7915    1.9678    1.1888 H       1  UNL1        0.1659
     37 H          -0.8145   -3.3855   -2.0620 H       1  UNL1        0.1036
     38 H          -4.8610   -3.1200   -1.5182 H       1  UNL1        0.1036
     39 H          -6.0867   -1.4069   -0.3149 H       1  UNL1        0.0624
     40 H          -7.2496    0.4686    0.8768 H       1  UNL1        0.0625
     41 H          -6.5325    2.9416    2.3139 H       1  UNL1        0.1035
     42 H          -2.4495    2.8895    2.0565 H       1  UNL1        0.1036
     43 H           1.0282   -3.4489   -1.1549 H       1  UNL1        0.0581
     44 H           4.0912    2.9590   -0.9356 H       1  UNL1        0.0620
     45 H           6.4555    3.6378    0.0555 H       1  UNL1        0.0615
     46 H           7.1495    1.9383    1.9115 H       1  UNL1        0.0575
     47 H           4.7478    0.8826    2.5015 H       1  UNL1        0.0356
     48 H           5.5695   -0.1315    1.2768 H       1  UNL1        0.0356
@<TRIPOS>BOND
     1     1     2    1
     2     2     3    2
     3     3     4   ar
     4     4     5   ar
     5     5     6   ar
     6     6     7   ar
     7     7     8   ar
     8     8     9   ar
     9     9    10   ar
    10    10    11   ar
    11    11    12   ar
    12    12    13   ar
    13    13    14   ar
    14    14    15   ar
    15    15    16   ar
    16    16    17   ar
    17    17    18   ar
    18    18    19   ar
    19    19    20   ar
    20    20    21   ar
    21    21    22   ar
    22    22    23   ar
    23     9    24   ar
    24    24    25   ar
    25    25    26    2
    26     4    27    1
    27    27    28    2
    28    28    29    1
    29    29    30    2
    30    30    31    1
    31    26     1    1
    32    31    27    1
    33    25     3   ar
    34    24     6   ar
    35    23     8   ar
    36    14    10   ar
    37    23    15   ar
    38    22    18   ar
    39     1    32    1
    40     1    33    1
    41     2    34    1
    42     5    35    1
    43     7    36    1
    44    11    37    1
    45    13    38    1
    46    16    39    1
    47    17    40    1
    48    19    41    1
    49    21    42    1
    50    26    43    1
    51    28    44    1
    52    29    45    1
    53    30    46    1
    54    31    47    1
    55    31    48    1
