@<TRIPOS>MOLECULE
*****
 46 53 0 0 0
SMALL
GASTEIGER

@<TRIPOS>ATOM
      1 C           2.9123   -3.5372   -0.6418 C.3     1  UNL1       -0.0148
      2 C           3.6945   -2.2894   -0.3685 C.2     1  UNL1       -0.0718
      3 C           2.8615   -1.2603   -0.1336 C.ar    1  UNL1       -0.0104
      4 C           3.1787    0.1724    0.0593 C.ar    1  UNL1        0.0286
      5 C           2.1304    1.0396    0.0949 C.ar    1  UNL1       -0.0265
      6 C           0.8135    0.5047    0.0240 C.ar    1  UNL1        0.0488
      7 N          -0.2952    1.3047    0.0202 N.ar    1  UNL1       -0.3536
      8 C          -1.4442    0.5334    0.0104 C.ar    1  UNL1        0.0566
      9 C          -0.9794   -0.7838    0.0700 C.ar    1  UNL1        0.0168
     10 C          -1.9685   -1.8084    0.2407 C.ar    1  UNL1       -0.0005
     11 C          -1.7257   -3.1191    0.5305 C.ar    1  UNL1       -0.0159
     12 S          -3.2098   -3.9768    0.6414 S.2     1  UNL1       -0.1038
     13 C          -4.1304   -2.5435    0.3846 C.ar    1  UNL1       -0.0160
     14 C          -3.3403   -1.4226    0.2146 C.ar    1  UNL1       -0.0024
     15 C          -3.8770   -0.1150    0.0662 C.ar    1  UNL1       -0.0070
     16 C          -5.3008    0.2203    0.0344 C.ar    1  UNL1       -0.0527
     17 C          -5.8128    1.5295   -0.0838 C.ar    1  UNL1       -0.0504
     18 C          -4.7770    2.4452   -0.1660 C.ar    1  UNL1        0.0205
     19 C          -4.9198    3.7998   -0.2974 C.ar    1  UNL1        0.0994
     20 O          -3.6865    4.3794   -0.3634 O.2     1  UNL1       -0.4698
     21 C          -2.7558    3.3797   -0.2731 C.ar    1  UNL1        0.1000
     22 C          -3.3734    2.1601   -0.1379 C.ar    1  UNL1        0.0295
     23 C          -2.8201    0.8743   -0.0197 C.ar    1  UNL1        0.0174
     24 C           0.4163   -0.8212   -0.0488 C.ar    1  UNL1        0.0154
     25 C           1.4694   -1.7661   -0.2048 C.ar    1  UNL1       -0.0114
     26 C           1.4947   -3.0601   -0.5504 C.2     1  UNL1       -0.0719
     27 C           4.5503    0.7338    0.1981 C.ar    1  UNL1        0.1636
     28 N           5.5035   -0.0578    0.6984 N.ar    1  UNL1       -0.2160
     29 C           6.7005    0.5101    0.8138 C.ar    1  UNL1        0.1200
     30 N           7.0111    1.7589    0.4800 N.ar    1  UNL1       -0.2241
     31 C           5.9866    2.4542   -0.0029 C.ar    1  UNL1        0.1200
     32 N           4.7428    2.0099   -0.1629 N.ar    1  UNL1       -0.2160
     33 H           3.1310   -3.9228   -1.6420 H       1  UNL1        0.0350
     34 H           3.1203   -4.3096    0.1042 H       1  UNL1        0.0350
     35 H           4.7714   -2.2457   -0.4177 H       1  UNL1        0.0581
     36 H           2.2735    2.1092    0.2174 H       1  UNL1        0.0645
     37 H          -0.2727    2.3112    0.0509 H       1  UNL1        0.1659
     38 H          -0.8025   -3.6377    0.7224 H       1  UNL1        0.0700
     39 H          -5.2067   -2.6277    0.4031 H       1  UNL1        0.0700
     40 H          -6.0323   -0.5834    0.1072 H       1  UNL1        0.0624
     41 H          -6.8687    1.7581   -0.1073 H       1  UNL1        0.0625
     42 H          -5.7593    4.4774   -0.3627 H       1  UNL1        0.1035
     43 H          -1.7381    3.7296   -0.3304 H       1  UNL1        0.1036
     44 H           0.6540   -3.6844   -0.7971 H       1  UNL1        0.0581
     45 H           7.4981   -0.1040    1.2181 H       1  UNL1        0.1048
     46 H           6.1825    3.4812   -0.2922 H       1  UNL1        0.1048
@<TRIPOS>BOND
     1     1     2    1
     2     2     3    2
     3     3     4   ar
     4     4     5   ar
     5     5     6   ar
     6     6     7   ar
     7     7     8   ar
     8     8     9   ar
     9     9    10   ar
    10    10    11   ar
    11    11    12   ar
    12    12    13   ar
    13    13    14   ar
    14    14    15   ar
    15    15    16   ar
    16    16    17   ar
    17    17    18   ar
    18    18    19   ar
    19    19    20   ar
    20    20    21   ar
    21    21    22   ar
    22    22    23   ar
    23     9    24   ar
    24    24    25   ar
    25    25    26    2
    26     4    27    1
    27    27    28   ar
    28    28    29   ar
    29    29    30   ar
    30    30    31   ar
    31    31    32   ar
    32    26     1    1
    33    32    27   ar
    34    25     3   ar
    35    24     6   ar
    36    23     8   ar
    37    14    10   ar
    38    23    15   ar
    39    22    18   ar
    40     1    33    1
    41     1    34    1
    42     2    35    1
    43     5    36    1
    44     7    37    1
    45    11    38    1
    46    13    39    1
    47    16    40    1
    48    17    41    1
    49    19    42    1
    50    21    43    1
    51    26    44    1
    52    29    45    1
    53    31    46    1
