@<TRIPOS>MOLECULE
*****
 42 48 0 0 0
SMALL
GASTEIGER

@<TRIPOS>ATOM
      1 C          -0.8266   -3.3755   -0.7893 C.3     1  UNL1        0.0000
      2 C          -1.7108   -2.1588   -0.8296 C.2     1  UNL1        0.0000
      3 C          -0.9723   -1.0523   -0.6391 C.ar    1  UNL1        0.0000
      4 C          -1.3926    0.3627   -0.6013 C.ar    1  UNL1        0.0000
      5 C          -0.4402    1.3145   -0.3973 C.ar    1  UNL1        0.0000
      6 C           0.9069    0.8761   -0.2391 C.ar    1  UNL1        0.0000
      7 N           1.9650    1.7375   -0.0324 N.ar    1  UNL1        0.0000
      8 C           3.0701    0.9649    0.0727 C.ar    1  UNL1        0.0000
      9 C           2.7560   -0.3803   -0.0625 C.ar    1  UNL1        0.0000
     10 C           3.9837   -1.2610    0.0506 C.3     1  UNL1        0.0000
     11 C           5.0226   -0.1725    0.2710 C.ar    1  UNL1        0.0000
     12 C           6.3983   -0.0033    0.4761 C.ar    1  UNL1        0.0000
     13 C           6.6055    1.3670    0.5975 C.ar    1  UNL1        0.0000
     14 N           5.3933    2.0291    0.4711 N.ar    1  UNL1        0.0000
     15 C           4.4528    1.0868    0.2758 C.ar    1  UNL1        0.0000
     16 C           1.3811   -0.4369   -0.2611 C.ar    1  UNL1        0.0000
     17 C           0.4296   -1.4608   -0.4670 C.ar    1  UNL1        0.0000
     18 C           0.5362   -2.7915   -0.5476 C.2     1  UNL1        0.0000
     19 C          -2.7485    0.8038   -0.7264 C.ar    1  UNL1        0.0000
     20 S          -3.2801    1.6194   -2.1732 S.2     1  UNL1        0.0000
     21 C          -4.9012    1.7897   -1.6092 C.ar    1  UNL1        0.0000
     22 C          -5.0104    1.2358   -0.3724 C.ar    1  UNL1        0.0000
     23 SI         -6.3816    1.0002    0.8946 Si      1  UNL1        0.0000
     24 C          -5.1085    0.1285    2.0242 C.2     1  UNL1        0.0000
     25 C          -3.8886    0.0787    1.4449 C.2     1  UNL1        0.0000
     26 C          -3.8111    0.6734    0.1411 C.ar    1  UNL1        0.0000
     27 H          -0.8597   -3.9157   -1.7400 H       1  UNL1        0.0000
     28 H          -1.1178   -4.0448    0.0256 H       1  UNL1        0.0000
     29 H          -2.7774   -2.1892   -0.9932 H       1  UNL1        0.0000
     30 H          -0.6846    2.3705   -0.3438 H       1  UNL1        0.0000
     31 H           1.9183    2.7449    0.0265 H       1  UNL1        0.0000
     32 H           4.1711   -1.8111   -0.8750 H       1  UNL1        0.0000
     33 H           3.9194   -1.9324    0.9106 H       1  UNL1        0.0000
     34 H           7.1621   -0.7672    0.5319 H       1  UNL1        0.0000
     35 H           7.5127    1.9323    0.7629 H       1  UNL1        0.0000
     36 H           5.2549    3.0293    0.5179 H       1  UNL1        0.0000
     37 H           1.4462   -3.3630   -0.4604 H       1  UNL1        0.0000
     38 H          -5.6490    2.2755   -2.2210 H       1  UNL1        0.0000
     39 H          -6.8611    2.2634    1.5087 H       1  UNL1        0.0000
     40 H          -7.4460    0.0585    0.4668 H       1  UNL1        0.0000
     41 H          -5.3933   -0.2525    2.9915 H       1  UNL1        0.0000
     42 H          -3.0245   -0.3738    1.9192 H       1  UNL1        0.0000
@<TRIPOS>BOND
     1     1     2    1
     2     2     3    2
     3     3     4   ar
     4     4     5   ar
     5     5     6   ar
     6     6     7   ar
     7     7     8   ar
     8     8     9   ar
     9     9    10    1
    10    10    11    1
    11    11    12   ar
    12    12    13   ar
    13    13    14   ar
    14    14    15   ar
    15     9    16   ar
    16    16    17   ar
    17    17    18    2
    18     4    19    1
    19    19    20   ar
    20    20    21   ar
    21    21    22   ar
    22    22    23    1
    23    23    24    1
    24    24    25    2
    25    25    26    1
    26    18     1    1
    27    26    19   ar
    28    17     3   ar
    29    26    22   ar
    30    16     6   ar
    31     8    15    1
    32    15    11   ar
    33     1    27    1
    34     1    28    1
    35     2    29    1
    36     5    30    1
    37     7    31    1
    38    10    32    1
    39    10    33    1
    40    12    34    1
    41    13    35    1
    42    14    36    1
    43    18    37    1
    44    21    38    1
    45    23    39    1
    46    23    40    1
    47    24    41    1
    48    25    42    1
