@<TRIPOS>MOLECULE
*****
 38 43 0 0 0
SMALL
GASTEIGER

@<TRIPOS>ATOM
      1 C          -1.9570    3.4595   -0.4930 C.3     1  UNL1       -0.0148
      2 C          -2.7940    2.2308   -0.2750 C.2     1  UNL1       -0.0718
      3 C          -2.0057    1.1463   -0.1753 C.ar    1  UNL1       -0.0104
      4 C          -2.3731   -0.2705    0.0462 C.ar    1  UNL1        0.0266
      5 C          -1.3617   -1.1805    0.1216 C.ar    1  UNL1       -0.0265
      6 C          -0.0262   -0.7042   -0.0137 C.ar    1  UNL1        0.0488
      7 N           1.0749   -1.5142    0.0401 N.ar    1  UNL1       -0.3525
      8 C           2.1831   -0.7318   -0.1262 C.ar    1  UNL1        0.0717
      9 C           1.8141    0.5958   -0.2928 C.ar    1  UNL1        0.0100
     10 C           2.8521    1.5368   -0.4786 C.ar    1  UNL1       -0.0513
     11 C           4.2303    1.1634   -0.4975 C.ar    1  UNL1       -0.0519
     12 C           4.6497   -0.1739   -0.3322 C.ar    1  UNL1        0.0017
     13 C           5.8886   -0.8658   -0.2997 C.ar    1  UNL1       -0.0366
     14 C           5.6171   -2.2056   -0.0989 C.ar    1  UNL1        0.0028
     15 N           4.2540   -2.3545   -0.0078 N.ar    1  UNL1       -0.3590
     16 C           3.6730   -1.1320   -0.1477 C.ar    1  UNL1        0.0707
     17 C           0.4037    0.5979   -0.2207 C.ar    1  UNL1        0.0149
     18 C          -0.6060    1.5888   -0.3093 C.ar    1  UNL1       -0.0114
     19 C          -0.5593    2.9133   -0.4941 C.2     1  UNL1       -0.0719
     20 C          -3.7229   -0.7534    0.1674 C.ar    1  UNL1        0.1354
     21 C          -4.2385   -1.8240    0.8988 C.ar    1  UNL1       -0.0159
     22 C          -5.6356   -1.8810    0.6818 C.ar    1  UNL1       -0.0233
     23 C          -5.9215   -0.8457   -0.1676 C.ar    1  UNL1        0.0926
     24 O          -4.7943   -0.1647   -0.4783 O.2     1  UNL1       -0.4629
     25 H          -2.0972    4.1788    0.3192 H       1  UNL1        0.0350
     26 H          -2.1957    3.9328   -1.4499 H       1  UNL1        0.0350
     27 H          -3.8714    2.2417   -0.2124 H       1  UNL1        0.0581
     28 H          -1.5421   -2.2407    0.2596 H       1  UNL1        0.0645
     29 H           1.0729   -2.5141    0.1770 H       1  UNL1        0.1660
     30 H           2.6020    2.5861   -0.6131 H       1  UNL1        0.0624
     31 H           4.9772    1.9403   -0.6452 H       1  UNL1        0.0624
     32 H           6.8737   -0.4326   -0.4114 H       1  UNL1        0.0638
     33 H           6.2738   -3.0608   -0.0140 H       1  UNL1        0.0807
     34 H           3.7691   -3.2282    0.1382 H       1  UNL1        0.1654
     35 H           0.3286    3.5102   -0.6216 H       1  UNL1        0.0581
     36 H          -3.6624   -2.4844    1.5320 H       1  UNL1        0.0655
     37 H          -6.3429   -2.5847    1.0969 H       1  UNL1        0.0649
     38 H          -6.8305   -0.4752   -0.6203 H       1  UNL1        0.1029
@<TRIPOS>BOND
     1     1     2    1
     2     2     3    2
     3     3     4   ar
     4     4     5   ar
     5     5     6   ar
     6     6     7   ar
     7     7     8   ar
     8     8     9   ar
     9     9    10   ar
    10    10    11   ar
    11    11    12   ar
    12    12    13   ar
    13    13    14   ar
    14    14    15   ar
    15    15    16   ar
    16     9    17   ar
    17    17    18   ar
    18    18    19    2
    19     4    20    1
    20    20    21   ar
    21    21    22   ar
    22    22    23   ar
    23    23    24   ar
    24    19     1    1
    25    24    20   ar
    26    18     3   ar
    27    17     6   ar
    28    16     8   ar
    29    16    12   ar
    30     1    25    1
    31     1    26    1
    32     2    27    1
    33     5    28    1
    34     7    29    1
    35    10    30    1
    36    11    31    1
    37    13    32    1
    38    14    33    1
    39    15    34    1
    40    19    35    1
    41    21    36    1
    42    22    37    1
    43    23    38    1
