@<TRIPOS>MOLECULE
*****
 45 52 0 0 0
SMALL
GASTEIGER

@<TRIPOS>ATOM
      1 SI         -1.5653   -2.9799    2.5516 Si      1  UNL1        0.0000
      2 C          -2.4808   -2.0490    1.2319 C.2     1  UNL1        0.0000
      3 C          -1.6666   -1.2245    0.5374 C.ar    1  UNL1        0.0000
      4 C          -2.1174   -0.3723   -0.5646 C.ar    1  UNL1        0.0000
      5 C          -1.2009    0.3918   -1.1929 C.ar    1  UNL1        0.0000
      6 C           0.2138    0.3849   -0.8082 C.ar    1  UNL1        0.0000
      7 C           1.1638    1.1716   -1.4663 C.ar    1  UNL1        0.0000
      8 C           0.9778    2.0287   -2.5257 C.ar    1  UNL1        0.0000
      9 N           2.2036    2.5787   -2.8303 N.ar    1  UNL1        0.0000
     10 C           3.1651    2.0842   -1.9792 C.ar    1  UNL1        0.0000
     11 C           2.5439    1.2074   -1.1229 C.ar    1  UNL1        0.0000
     12 C           3.1096    0.4604   -0.0863 C.ar    1  UNL1        0.0000
     13 C           4.4470    0.4547    0.2968 C.ar    1  UNL1        0.0000
     14 O           5.4781    1.1668   -0.2500 O.2     1  UNL1        0.0000
     15 C           6.6015    0.8471    0.4415 C.ar    1  UNL1        0.0000
     16 C           6.3156   -0.0630    1.4313 C.ar    1  UNL1        0.0000
     17 C           4.9225   -0.3209    1.3428 C.ar    1  UNL1        0.0000
     18 C           4.0072   -1.1146    2.0192 C.ar    1  UNL1        0.0000
     19 N           2.6962   -1.1164    1.6527 N.ar    1  UNL1        0.0000
     20 C           2.1976   -0.3709    0.6335 C.ar    1  UNL1        0.0000
     21 C           0.7838   -0.3979    0.2661 C.ar    1  UNL1        0.0000
     22 C          -0.2375   -1.2547    0.9723 C.ar    1  UNL1        0.0000
     23 C          -0.0209   -2.1055    1.9993 C.2     1  UNL1        0.0000
     24 C          -3.4720   -0.2505   -1.0044 C.ar    1  UNL1        0.0000
     25 S          -3.9977   -0.8704   -2.5613 S.2     1  UNL1        0.0000
     26 C          -5.6467   -0.3839   -2.3337 C.ar    1  UNL1        0.0000
     27 C          -5.7339    0.2025   -1.1275 C.ar    1  UNL1        0.0000
     28 O          -6.8552    0.7223   -0.5586 O.2     1  UNL1        0.0000
     29 C          -6.3227    1.1621    0.6408 C.ar    1  UNL1        0.0000
     30 C          -4.9505    0.9187    0.7839 C.ar    1  UNL1        0.0000
     31 C          -4.5690    0.2759   -0.4070 C.ar    1  UNL1        0.0000
     32 H          -1.5271   -4.4400    2.2947 H       1  UNL1        0.0000
     33 H          -1.9929   -2.5867    3.9165 H       1  UNL1        0.0000
     34 H          -3.5385   -2.2016    1.0867 H       1  UNL1        0.0000
     35 H          -1.4970    1.0512   -2.0020 H       1  UNL1        0.0000
     36 H           0.1051    2.3075   -3.0999 H       1  UNL1        0.0000
     37 H           2.3734    3.2473   -3.5709 H       1  UNL1        0.0000
     38 H           4.1933    2.4075   -2.0719 H       1  UNL1        0.0000
     39 H           7.5063    1.3410    0.1152 H       1  UNL1        0.0000
     40 H           7.0226   -0.4879    2.1295 H       1  UNL1        0.0000
     41 H           4.2722   -1.7577    2.8504 H       1  UNL1        0.0000
     42 H           0.9058   -2.3250    2.5003 H       1  UNL1        0.0000
     43 H          -6.4268   -0.5494   -3.0618 H       1  UNL1        0.0000
     44 H          -7.0466    1.6315    1.2943 H       1  UNL1        0.0000
     45 H          -4.3395    1.1788    1.6365 H       1  UNL1        0.0000
@<TRIPOS>BOND
     1     1     2    1
     2     2     3    2
     3     3     4   ar
     4     4     5   ar
     5     5     6   ar
     6     6     7   ar
     7     7     8   ar
     8     8     9   ar
     9     9    10   ar
    10    10    11   ar
    11    11    12   ar
    12    12    13   ar
    13    13    14   ar
    14    14    15   ar
    15    15    16   ar
    16    16    17   ar
    17    17    18   ar
    18    18    19   ar
    19    19    20   ar
    20    20    21   ar
    21    21    22   ar
    22    22    23    2
    23     4    24    1
    24    24    25   ar
    25    25    26   ar
    26    26    27   ar
    27    27    28   ar
    28    28    29   ar
    29    29    30   ar
    30    30    31   ar
    31    23     1    1
    32    31    24   ar
    33    22     3   ar
    34    31    27   ar
    35    21     6   ar
    36    11     7   ar
    37    20    12   ar
    38    17    13   ar
    39     1    32    1
    40     1    33    1
    41     2    34    1
    42     5    35    1
    43     8    36    1
    44     9    37    1
    45    10    38    1
    46    15    39    1
    47    16    40    1
    48    18    41    1
    49    23    42    1
    50    26    43    1
    51    29    44    1
    52    30    45    1
