@<TRIPOS>MOLECULE
*****
 35 40 0 0 0
SMALL
GASTEIGER

@<TRIPOS>ATOM
      1 C           2.1075   -3.2288    0.7538 C.3     1  UNL1       -0.0148
      2 C           2.9117   -1.9798    0.5087 C.2     1  UNL1       -0.0719
      3 C           2.0891   -0.9541    0.2294 C.ar    1  UNL1       -0.0128
      4 C           2.4090    0.4595   -0.0702 C.ar    1  UNL1       -0.0004
      5 C           1.3759    1.3168   -0.3081 C.ar    1  UNL1       -0.0289
      6 C           0.0529    0.7905   -0.2443 C.ar    1  UNL1        0.0492
      7 N          -1.0652    1.5402   -0.4571 N.ar    1  UNL1       -0.3520
      8 C          -2.1557    0.7041   -0.3174 C.ar    1  UNL1        0.0810
      9 C          -3.5617    0.8096   -0.3993 C.ar    1  UNL1        0.1019
     10 N          -4.2042    1.9686   -0.6828 N.ar    1  UNL1       -0.2524
     11 C          -5.5492    1.8599   -0.7148 C.ar    1  UNL1        0.0284
     12 C          -6.2667    0.6948   -0.4865 C.ar    1  UNL1       -0.0425
     13 C          -5.5786   -0.4831   -0.1969 C.ar    1  UNL1       -0.0444
     14 C          -4.1787   -0.4132   -0.1541 C.ar    1  UNL1        0.0402
     15 S          -3.0415   -1.6742    0.1726 S.2     1  UNL1       -0.0845
     16 C          -1.7250   -0.5632   -0.0189 C.ar    1  UNL1        0.0478
     17 C          -0.3143   -0.5127    0.0284 C.ar    1  UNL1        0.0215
     18 C           0.7050   -1.4522    0.2804 C.ar    1  UNL1       -0.0110
     19 C           0.6931   -2.7558    0.5769 C.2     1  UNL1       -0.0719
     20 C           3.7391    0.9762   -0.1682 C.ar    1  UNL1        0.0394
     21 C           4.7700    0.6031   -1.0168 C.ar    1  UNL1        0.0425
     22 N           5.9696    1.2724   -0.8634 N.ar    1  UNL1       -0.2551
     23 C           5.8484    2.1470    0.1089 C.ar    1  UNL1        0.0652
     24 S           4.3214    2.2191    0.8810 S.2     1  UNL1       -0.0754
     25 H           2.2714   -3.6076    1.7670 H       1  UNL1        0.0350
     26 H           2.3572   -4.0053    0.0247 H       1  UNL1        0.0350
     27 H           3.9890   -1.9399    0.5639 H       1  UNL1        0.0581
     28 H           1.5339    2.3624   -0.5537 H       1  UNL1        0.0645
     29 H          -1.1533    2.5254   -0.6785 H       1  UNL1        0.1660
     30 H          -6.0718    2.7864   -0.9418 H       1  UNL1        0.0830
     31 H          -7.3509    0.7016   -0.5331 H       1  UNL1        0.0633
     32 H          -6.1034   -1.4144   -0.0123 H       1  UNL1        0.0630
     33 H          -0.1813   -3.3785    0.6824 H       1  UNL1        0.0581
     34 H           4.6925   -0.1641   -1.7785 H       1  UNL1        0.0841
     35 H           6.6650    2.7892    0.4119 H       1  UNL1        0.0907
@<TRIPOS>BOND
     1     1     2    1
     2     2     3    2
     3     3     4   ar
     4     4     5   ar
     5     5     6   ar
     6     6     7   ar
     7     7     8   ar
     8     8     9   ar
     9     9    10   ar
    10    10    11   ar
    11    11    12   ar
    12    12    13   ar
    13    13    14   ar
    14    14    15   ar
    15    15    16   ar
    16    16    17   ar
    17    17    18   ar
    18    18    19    2
    19     4    20    1
    20    20    21   ar
    21    21    22   ar
    22    22    23   ar
    23    23    24   ar
    24    19     1    1
    25    24    20   ar
    26    18     3   ar
    27    17     6   ar
    28    16     8   ar
    29    14     9   ar
    30     1    25    1
    31     1    26    1
    32     2    27    1
    33     5    28    1
    34     7    29    1
    35    11    30    1
    36    12    31    1
    37    13    32    1
    38    19    33    1
    39    21    34    1
    40    23    35    1
