@<TRIPOS>MOLECULE
*****
 40 46 0 0 0
SMALL
GASTEIGER

@<TRIPOS>ATOM
      1 C           1.6252   -1.0513    3.2439 C.3     1  UNL1       -0.0148
      2 C           2.5083   -0.6751    2.0909 C.2     1  UNL1       -0.0719
      3 C           1.7569   -0.3633    1.0208 C.ar    1  UNL1       -0.0137
      4 C           2.1966    0.0721   -0.3219 C.ar    1  UNL1       -0.0122
      5 C           1.2292    0.3743   -1.2280 C.ar    1  UNL1       -0.0298
      6 C          -0.1303    0.2325   -0.8297 C.ar    1  UNL1        0.0487
      7 N          -1.1741    0.5004   -1.6800 N.ar    1  UNL1       -0.3532
      8 C          -2.3392    0.2640   -1.0050 C.ar    1  UNL1        0.0642
      9 C          -3.7952    0.4027   -1.4784 C.ar    1  UNL1        0.0454
     10 S          -4.3656    0.8962   -2.9904 S.2     1  UNL1       -0.0945
     11 C          -6.0070    0.7067   -2.4794 C.ar    1  UNL1       -0.0230
     12 C          -6.1081    0.2715   -1.1692 C.ar    1  UNL1       -0.0448
     13 C          -4.8213    0.1077   -0.6260 C.ar    1  UNL1        0.0194
     14 C          -4.4798   -0.3265    0.6964 C.ar    1  UNL1        0.1088
     15 N          -5.4243   -0.6326    1.5828 N.ar    1  UNL1       -0.1901
     16 S          -4.5379   -1.0758    2.9489 S.2     1  UNL1        0.1165
     17 N          -2.9618   -0.8696    2.3881 N.ar    1  UNL1       -0.1901
     18 C          -3.1202   -0.4553    1.1365 C.ar    1  UNL1        0.1102
     19 C          -2.0230   -0.1532    0.2677 C.ar    1  UNL1        0.0372
     20 C          -0.6341   -0.1814    0.4039 C.ar    1  UNL1        0.0170
     21 C           0.3338   -0.4955    1.3952 C.ar    1  UNL1       -0.0114
     22 C           0.2488   -0.8942    2.6700 C.2     1  UNL1       -0.0719
     23 C           3.5845    0.1985   -0.7220 C.2     1  UNL1       -0.0359
     24 C           4.5325   -0.7529   -0.6779 C.2     1  UNL1       -0.0580
     25 C           5.7793   -0.2158   -1.1581 C.2     1  UNL1       -0.0651
     26 C           5.6086    1.0684   -1.5019 C.2     1  UNL1       -0.0797
     27 C           4.1806    1.4734   -1.2633 C.3     1  UNL1       -0.0086
     28 H           1.7771   -0.3765    4.0914 H       1  UNL1        0.0350
     29 H           1.8061   -2.0835    3.5579 H       1  UNL1        0.0350
     30 H           3.5859   -0.6584    2.1407 H       1  UNL1        0.0581
     31 H           1.4714    0.6923   -2.2369 H       1  UNL1        0.0644
     32 H          -1.1031    0.8147   -2.6387 H       1  UNL1        0.1659
     33 H          -6.8108    0.9250   -3.1694 H       1  UNL1        0.0694
     34 H          -7.0465    0.0909   -0.6592 H       1  UNL1        0.0630
     35 H          -0.6510   -1.0737    3.2329 H       1  UNL1        0.0581
     36 H           4.4038   -1.7705   -0.3401 H       1  UNL1        0.0620
     37 H           6.6983   -0.7787   -1.2205 H       1  UNL1        0.0615
     38 H           6.3732    1.7229   -1.8920 H       1  UNL1        0.0575
     39 H           3.7095    1.7840   -2.2010 H       1  UNL1        0.0356
     40 H           4.1237    2.2854   -0.5315 H       1  UNL1        0.0356
@<TRIPOS>BOND
     1     1     2    1
     2     2     3    2
     3     3     4   ar
     4     4     5   ar
     5     5     6   ar
     6     6     7   ar
     7     7     8   ar
     8     8     9   ar
     9     9    10   ar
    10    10    11   ar
    11    11    12   ar
    12    12    13   ar
    13    13    14   ar
    14    14    15   ar
    15    15    16   ar
    16    16    17   ar
    17    17    18   ar
    18    18    19   ar
    19    19    20   ar
    20    20    21   ar
    21    21    22    2
    22     4    23    1
    23    23    24    2
    24    24    25    1
    25    25    26    2
    26    26    27    1
    27    22     1    1
    28    27    23    1
    29    21     3   ar
    30    20     6   ar
    31    19     8   ar
    32    13     9   ar
    33    18    14   ar
    34     1    28    1
    35     1    29    1
    36     2    30    1
    37     5    31    1
    38     7    32    1
    39    11    33    1
    40    12    34    1
    41    22    35    1
    42    24    36    1
    43    25    37    1
    44    26    38    1
    45    27    39    1
    46    27    40    1
