@<TRIPOS>MOLECULE
*****
 38 43 0 0 0
SMALL
GASTEIGER

@<TRIPOS>ATOM
      1 C           1.5566   -1.2447   -3.2051 C.3     1  UNL1       -0.0148
      2 C           2.6589   -0.7409   -2.3154 C.2     1  UNL1       -0.0719
      3 C           2.1441   -0.3082   -1.1520 C.ar    1  UNL1       -0.0128
      4 C           2.8308    0.2714    0.0182 C.ar    1  UNL1       -0.0004
      5 C           2.0717    0.6618    1.0782 C.ar    1  UNL1       -0.0289
      6 C           0.6641    0.4691    0.9842 C.ar    1  UNL1        0.0487
      7 N          -0.2085    0.8067    1.9752 N.ar    1  UNL1       -0.3541
      8 C          -1.5001    0.4956    1.5851 C.ar    1  UNL1        0.0481
      9 C          -2.7043    0.6716    2.2867 C.ar    1  UNL1       -0.0304
     10 C          -3.8548    0.2596    1.6324 C.ar    1  UNL1       -0.0199
     11 C          -5.2340    0.3098    2.0905 C.2     1  UNL1       -0.0579
     12 C          -6.0068   -0.2005    1.1184 C.2     1  UNL1       -0.0791
     13 C          -5.2104   -0.6413   -0.0860 C.3     1  UNL1       -0.0086
     14 C          -3.8189   -0.2977    0.3516 C.ar    1  UNL1       -0.0358
     15 C          -2.6272   -0.4719   -0.3423 C.ar    1  UNL1       -0.0479
     16 C          -1.4330   -0.0634    0.2925 C.ar    1  UNL1        0.0083
     17 C          -0.0610   -0.0694   -0.0622 C.ar    1  UNL1        0.0148
     18 C           0.6823   -0.4849   -1.1982 C.ar    1  UNL1       -0.0115
     19 C           0.3278   -1.0242   -2.3705 C.2     1  UNL1       -0.0719
     20 C           4.2407    0.4660    0.1265 C.ar    1  UNL1        0.0394
     21 C           4.9826    1.6363    0.1173 C.ar    1  UNL1        0.0425
     22 N           6.3506    1.4979    0.2583 N.ar    1  UNL1       -0.2551
     23 C           6.6415    0.2215    0.3678 C.ar    1  UNL1        0.0652
     24 S           5.3197   -0.8671    0.3156 S.2     1  UNL1       -0.0754
     25 H           1.6912   -2.3057   -3.4348 H       1  UNL1        0.0350
     26 H           1.5087   -0.6692   -4.1343 H       1  UNL1        0.0350
     27 H           3.7017   -0.7364   -2.5937 H       1  UNL1        0.0581
     28 H           2.5081    1.0939    1.9735 H       1  UNL1        0.0645
     29 H           0.0338    1.2203    2.8642 H       1  UNL1        0.1659
     30 H          -2.7329    1.1032    3.2797 H       1  UNL1        0.0644
     31 H          -5.5505    0.6941    3.0463 H       1  UNL1        0.0621
     32 H          -7.0819   -0.2922    1.1768 H       1  UNL1        0.0575
     33 H          -5.5005   -0.0745   -0.9751 H       1  UNL1        0.0356
     34 H          -5.3213   -1.7160   -0.2557 H       1  UNL1        0.0356
     35 H          -2.6187   -0.9062   -1.3345 H       1  UNL1        0.0627
     36 H          -0.6730   -1.2646   -2.6889 H       1  UNL1        0.0581
     37 H           4.5653    2.6305    0.0078 H       1  UNL1        0.0841
     38 H           7.6580   -0.1305    0.4858 H       1  UNL1        0.0907
@<TRIPOS>BOND
     1     1     2    1
     2     2     3    2
     3     3     4   ar
     4     4     5   ar
     5     5     6   ar
     6     6     7   ar
     7     7     8   ar
     8     8     9   ar
     9     9    10   ar
    10    10    11    1
    11    11    12    2
    12    12    13    1
    13    13    14    1
    14    14    15   ar
    15    15    16   ar
    16    16    17   ar
    17    17    18   ar
    18    18    19    2
    19     4    20    1
    20    20    21   ar
    21    21    22   ar
    22    22    23   ar
    23    23    24   ar
    24    19     1    1
    25    24    20   ar
    26    18     3   ar
    27    17     6   ar
    28    16     8   ar
    29    14    10   ar
    30     1    25    1
    31     1    26    1
    32     2    27    1
    33     5    28    1
    34     7    29    1
    35     9    30    1
    36    11    31    1
    37    12    32    1
    38    13    33    1
    39    13    34    1
    40    15    35    1
    41    19    36    1
    42    21    37    1
    43    23    38    1
