@<TRIPOS>MOLECULE
*****
 47 54 0 0 0
SMALL
GASTEIGER

@<TRIPOS>ATOM
      1 C           1.0471   -3.1118    2.1472 C.3     1  UNL1       -0.0148
      2 C           2.2463   -2.2634    1.8284 C.2     1  UNL1       -0.0719
      3 C           1.8606   -1.1476    1.1858 C.ar    1  UNL1       -0.0128
      4 C           2.6770   -0.0282    0.6702 C.ar    1  UNL1        0.0002
      5 C           2.0363    0.9729    0.0060 C.ar    1  UNL1       -0.0289
      6 C           0.6222    0.8788   -0.1248 C.ar    1  UNL1        0.0487
      7 N          -0.1378    1.8141   -0.7612 N.ar    1  UNL1       -0.3541
      8 C          -1.4699    1.4400   -0.7127 C.ar    1  UNL1        0.0481
      9 C          -2.5982    2.0966   -1.2320 C.ar    1  UNL1       -0.0300
     10 C          -3.8687    1.5262   -1.0643 C.ar    1  UNL1       -0.0153
     11 C          -5.0222    2.2026   -1.5977 C.ar    1  UNL1       -0.0534
     12 C          -6.3556    1.7437   -1.5019 C.ar    1  UNL1       -0.0529
     13 C          -6.4347    0.5353   -0.8182 C.ar    1  UNL1       -0.0103
     14 C          -7.6301   -0.1045   -0.6012 C.ar    1  UNL1       -0.0166
     15 S          -7.4026   -1.5685    0.2678 S.2     1  UNL1       -0.1039
     16 C          -5.6993   -1.3395    0.3506 C.ar    1  UNL1       -0.0160
     17 C          -5.3078   -0.1746   -0.2689 C.ar    1  UNL1       -0.0032
     18 C          -3.9622    0.2837   -0.3627 C.ar    1  UNL1       -0.0090
     19 C          -2.8114   -0.3672    0.1556 C.ar    1  UNL1       -0.0437
     20 C          -1.5465    0.2227   -0.0235 C.ar    1  UNL1        0.0086
     21 C          -0.2192   -0.1150    0.3368 C.ar    1  UNL1        0.0148
     22 C           0.3958   -1.1934    1.0244 C.ar    1  UNL1       -0.0115
     23 C          -0.0878   -2.3131    1.5751 C.2     1  UNL1       -0.0719
     24 C           4.0987    0.0951    0.8153 C.ar    1  UNL1        0.0474
     25 S           4.7955    0.2448    2.3988 S.2     1  UNL1       -0.0923
     26 C           6.3951    0.3424    1.7938 C.ar    1  UNL1        0.0038
     27 C           6.4151    0.2802    0.4261 C.ar    1  UNL1        0.0968
     28 N           7.5662    0.3446   -0.2993 N.ar    1  UNL1       -0.2514
     29 C           7.2989    0.2613   -1.6315 C.ar    1  UNL1        0.0464
     30 C           6.0219    0.1337   -2.1913 C.ar    1  UNL1        0.0464
     31 N           4.8588    0.0736   -1.4875 N.ar    1  UNL1       -0.2508
     32 C           5.0950    0.1457   -0.1432 C.ar    1  UNL1        0.1039
     33 H           0.9329   -3.2406    3.2275 H       1  UNL1        0.0350
     34 H           1.1204   -4.0910    1.6649 H       1  UNL1        0.0350
     35 H           3.2579   -2.5370    2.0850 H       1  UNL1        0.0581
     36 H           2.5700    1.8227   -0.4080 H       1  UNL1        0.0645
     37 H           0.2058    2.6540   -1.2044 H       1  UNL1        0.1659
     38 H          -2.4794    3.0395   -1.7589 H       1  UNL1        0.0644
     39 H          -4.8678    3.1484   -2.1213 H       1  UNL1        0.0624
     40 H          -7.1930    2.2866   -1.9190 H       1  UNL1        0.0624
     41 H          -8.6251    0.1961   -0.8989 H       1  UNL1        0.0699
     42 H          -5.0967   -2.0821    0.8528 H       1  UNL1        0.0700
     43 H          -2.8956   -1.3079    0.6853 H       1  UNL1        0.0631
     44 H          -1.1201   -2.6196    1.6037 H       1  UNL1        0.0581
     45 H           7.2362    0.4447    2.4638 H       1  UNL1        0.0715
     46 H           8.1736    0.3012   -2.2747 H       1  UNL1        0.0845
     47 H           5.9040    0.0736   -3.2698 H       1  UNL1        0.0845
@<TRIPOS>BOND
     1     1     2    1
     2     2     3    2
     3     3     4   ar
     4     4     5   ar
     5     5     6   ar
     6     6     7   ar
     7     7     8   ar
     8     8     9   ar
     9     9    10   ar
    10    10    11   ar
    11    11    12   ar
    12    12    13   ar
    13    13    14   ar
    14    14    15   ar
    15    15    16   ar
    16    16    17   ar
    17    17    18   ar
    18    18    19   ar
    19    19    20   ar
    20    20    21   ar
    21    21    22   ar
    22    22    23    2
    23     4    24    1
    24    24    25   ar
    25    25    26   ar
    26    26    27   ar
    27    27    28   ar
    28    28    29   ar
    29    29    30   ar
    30    30    31   ar
    31    31    32   ar
    32    23     1    1
    33    32    24   ar
    34    22     3   ar
    35    32    27   ar
    36    21     6   ar
    37    20     8   ar
    38    18    10   ar
    39    17    13   ar
    40     1    33    1
    41     1    34    1
    42     2    35    1
    43     5    36    1
    44     7    37    1
    45     9    38    1
    46    11    39    1
    47    12    40    1
    48    14    41    1
    49    16    42    1
    50    19    43    1
    51    23    44    1
    52    26    45    1
    53    29    46    1
    54    30    47    1
