@<TRIPOS>MOLECULE
*****
 45 51 0 0 0
SMALL
GASTEIGER

@<TRIPOS>ATOM
      1 C           0.8627   -3.2886   -1.1935 C.3     1  UNL1       -0.0148
      2 C           1.8837   -2.2083   -0.9688 C.2     1  UNL1       -0.0719
      3 C           1.2672   -1.0671   -0.6205 C.ar    1  UNL1       -0.0134
      4 C           1.8475    0.2464   -0.3006 C.ar    1  UNL1       -0.0079
      5 C           1.0088    1.2672    0.0176 C.ar    1  UNL1       -0.0294
      6 C          -0.3858    0.9810    0.0324 C.ar    1  UNL1        0.0487
      7 N          -1.3400    1.9035    0.3431 N.ar    1  UNL1       -0.3541
      8 C          -2.5914    1.3171    0.2685 C.ar    1  UNL1        0.0481
      9 C          -3.8552    1.8773    0.5023 C.ar    1  UNL1       -0.0300
     10 C          -4.9884    1.0577    0.3578 C.ar    1  UNL1       -0.0130
     11 C          -6.2769    1.5588    0.5773 C.ar    1  UNL1       -0.0358
     12 C          -7.3625    0.7110    0.4220 C.ar    1  UNL1        0.0281
     13 N          -7.2587   -0.5849    0.0679 N.ar    1  UNL1       -0.2626
     14 C          -6.0053   -1.0521   -0.1400 C.ar    1  UNL1        0.0353
     15 C          -4.8404   -0.2915   -0.0134 C.ar    1  UNL1        0.0009
     16 C          -3.5596   -0.8336   -0.2431 C.ar    1  UNL1       -0.0428
     17 C          -2.4155   -0.0230   -0.1019 C.ar    1  UNL1        0.0086
     18 C          -1.0204   -0.2160   -0.2454 C.ar    1  UNL1        0.0148
     19 C          -0.1847   -1.3104   -0.5927 C.ar    1  UNL1       -0.0115
     20 C          -0.4358   -2.5835   -0.9193 C.2     1  UNL1       -0.0719
     21 C           3.2814    0.5317   -0.3246 C.ar    1  UNL1       -0.0090
     22 C           3.9513    1.1432   -1.4111 C.ar    1  UNL1       -0.0534
     23 C           5.3586    1.4092   -1.4295 C.ar    1  UNL1       -0.0606
     24 C           6.2363    1.0906   -0.3697 C.ar    1  UNL1       -0.0535
     25 C           5.5700    0.4844    0.6963 C.ar    1  UNL1       -0.0103
     26 C           6.2168    0.0827    1.8385 C.ar    1  UNL1       -0.0166
     27 S           5.1211   -0.6265    2.9576 S.2     1  UNL1       -0.1039
     28 C           3.7783   -0.3932    1.9082 C.ar    1  UNL1       -0.0160
     29 C           4.1532    0.2099    0.7296 C.ar    1  UNL1       -0.0032
     30 H           0.9004   -3.6562   -2.2232 H       1  UNL1        0.0350
     31 H           1.0123   -4.1205   -0.4991 H       1  UNL1        0.0350
     32 H           2.9487   -2.3495   -1.0745 H       1  UNL1        0.0581
     33 H           1.3755    2.2599    0.2589 H       1  UNL1        0.0644
     34 H          -1.1725    2.8680    0.5918 H       1  UNL1        0.1659
     35 H          -3.9512    2.9206    0.7883 H       1  UNL1        0.0644
     36 H          -6.4410    2.5917    0.8649 H       1  UNL1        0.0639
     37 H          -8.3760    1.0667    0.5843 H       1  UNL1        0.0830
     38 H          -5.9618   -2.1006   -0.4236 H       1  UNL1        0.0836
     39 H          -3.4491   -1.8748   -0.5290 H       1  UNL1        0.0631
     40 H          -1.4043   -3.0508   -0.9833 H       1  UNL1        0.0581
     41 H           3.3692    1.4247   -2.2896 H       1  UNL1        0.0624
     42 H           5.7752    1.8840   -2.3188 H       1  UNL1        0.0618
     43 H           7.2973    1.2997   -0.4057 H       1  UNL1        0.0624
     44 H           7.2660    0.1602    2.0883 H       1  UNL1        0.0699
     45 H           2.7951   -0.7164    2.2230 H       1  UNL1        0.0700
@<TRIPOS>BOND
     1     1     2    1
     2     2     3    2
     3     3     4   ar
     4     4     5   ar
     5     5     6   ar
     6     6     7   ar
     7     7     8   ar
     8     8     9   ar
     9     9    10   ar
    10    10    11   ar
    11    11    12   ar
    12    12    13   ar
    13    13    14   ar
    14    14    15   ar
    15    15    16   ar
    16    16    17   ar
    17    17    18   ar
    18    18    19   ar
    19    19    20    2
    20     4    21    1
    21    21    22   ar
    22    22    23   ar
    23    23    24   ar
    24    24    25   ar
    25    25    26   ar
    26    26    27   ar
    27    27    28   ar
    28    28    29   ar
    29    20     1    1
    30    29    21   ar
    31    19     3   ar
    32    29    25   ar
    33    18     6   ar
    34    17     8   ar
    35    15    10   ar
    36     1    30    1
    37     1    31    1
    38     2    32    1
    39     5    33    1
    40     7    34    1
    41     9    35    1
    42    11    36    1
    43    12    37    1
    44    14    38    1
    45    16    39    1
    46    20    40    1
    47    22    41    1
    48    23    42    1
    49    24    43    1
    50    26    44    1
    51    28    45    1
