@<TRIPOS>MOLECULE
*****
 44 50 0 0 0
SMALL
GASTEIGER

@<TRIPOS>ATOM
      1 C           0.1731   -3.1580    0.7258 C.3     1  UNL1        0.0000
      2 C           1.3026   -2.2000    0.9545 C.2     1  UNL1        0.0000
      3 C           0.8856   -0.9444    0.7202 C.ar    1  UNL1        0.0000
      4 C           1.6713    0.2993    0.7446 C.ar    1  UNL1        0.0000
      5 C           1.0481    1.4532    0.3932 C.ar    1  UNL1        0.0000
      6 C          -0.3358    1.3805    0.0661 C.ar    1  UNL1        0.0000
      7 N          -1.0474    2.4797   -0.3271 N.ar    1  UNL1        0.0000
      8 C          -2.3411    2.0941   -0.5451 C.ar    1  UNL1        0.0000
      9 C          -3.3277    3.0028   -1.0112 C.ar    1  UNL1        0.0000
     10 C          -4.5730    2.5123   -1.1709 C.ar    1  UNL1        0.0000
     11 C          -4.8684    1.1233   -0.8253 C.ar    1  UNL1        0.0000
     12 C          -6.1044    0.5901   -0.8811 C.2     1  UNL1        0.0000
     13 SI         -6.0991   -1.1629   -0.2440 Si      1  UNL1        0.0000
     14 C          -4.2678   -0.9995    0.0817 C.2     1  UNL1        0.0000
     15 C          -3.8016    0.1988   -0.3137 C.ar    1  UNL1        0.0000
     16 C          -2.4752    0.7411   -0.2345 C.ar    1  UNL1        0.0000
     17 C          -1.1768    0.2687    0.0649 C.ar    1  UNL1        0.0000
     18 C          -0.5477   -0.9754    0.3619 C.ar    1  UNL1        0.0000
     19 C          -0.9525   -2.2509    0.3213 C.2     1  UNL1        0.0000
     20 C           3.0661    0.3740    1.0420 C.ar    1  UNL1        0.0000
     21 S           3.6204    0.9398    2.5902 S.2     1  UNL1        0.0000
     22 C           5.2870    0.7279    2.1850 C.ar    1  UNL1        0.0000
     23 C           5.4170    0.2377    0.9148 C.ar    1  UNL1        0.0000
     24 C           6.5827   -0.0948    0.1554 C.2     1  UNL1        0.0000
     25 C           6.3352   -0.5623   -1.0881 C.2     1  UNL1        0.0000
     26 SI          4.4479   -0.6335   -1.4465 Si      1  UNL1        0.0000
     27 C           4.1584    0.0430    0.2899 C.ar    1  UNL1        0.0000
     28 H           0.4147   -3.8631   -0.0750 H       1  UNL1        0.0000
     29 H          -0.0718   -3.7077    1.6393 H       1  UNL1        0.0000
     30 H           2.3022   -2.4974    1.2330 H       1  UNL1        0.0000
     31 H           1.5736    2.4026    0.3636 H       1  UNL1        0.0000
     32 H          -0.6805    3.4143   -0.4412 H       1  UNL1        0.0000
     33 H          -3.0917    4.0348   -1.2443 H       1  UNL1        0.0000
     34 H          -5.3775    3.1446   -1.5297 H       1  UNL1        0.0000
     35 H          -7.0142    1.0760   -1.1948 H       1  UNL1        0.0000
     36 H          -6.8881   -1.3151    1.0024 H       1  UNL1        0.0000
     37 H          -6.4003   -2.1534   -1.3059 H       1  UNL1        0.0000
     38 H          -3.7328   -1.7946    0.5628 H       1  UNL1        0.0000
     39 H          -1.9159   -2.6156    0.0173 H       1  UNL1        0.0000
     40 H           6.0560    0.9739    2.9035 H       1  UNL1        0.0000
     41 H           7.5827    0.0231    0.5565 H       1  UNL1        0.0000
     42 H           7.0486   -0.8736   -1.8336 H       1  UNL1        0.0000
     43 H           4.0191   -2.0418   -1.6389 H       1  UNL1        0.0000
     44 H           4.0989    0.3087   -2.5393 H       1  UNL1        0.0000
@<TRIPOS>BOND
     1     1     2    1
     2     2     3    2
     3     3     4   ar
     4     4     5   ar
     5     5     6   ar
     6     6     7   ar
     7     7     8   ar
     8     8     9   ar
     9     9    10   ar
    10    10    11   ar
    11    11    12    2
    12    12    13    1
    13    13    14    1
    14    14    15    2
    15    15    16   ar
    16    16    17   ar
    17    17    18   ar
    18    18    19    2
    19     4    20    1
    20    20    21   ar
    21    21    22   ar
    22    22    23   ar
    23    23    24    1
    24    24    25    2
    25    25    26    1
    26    26    27    1
    27    19     1    1
    28    27    20   ar
    29    18     3   ar
    30    27    23   ar
    31    17     6   ar
    32    16     8   ar
    33    15    11   ar
    34     1    28    1
    35     1    29    1
    36     2    30    1
    37     5    31    1
    38     7    32    1
    39     9    33    1
    40    10    34    1
    41    12    35    1
    42    13    36    1
    43    13    37    1
    44    14    38    1
    45    19    39    1
    46    22    40    1
    47    24    41    1
    48    25    42    1
    49    26    43    1
    50    26    44    1
