@<TRIPOS>MOLECULE
*****
 45 51 0 0 0
SMALL
GASTEIGER

@<TRIPOS>ATOM
      1 C          -3.2010   -1.8898    2.2211 C.3     1  UNL1       -0.0148
      2 C          -1.9391   -1.4691    1.5175 C.2     1  UNL1       -0.0719
      3 C          -2.1910   -0.4142    0.7246 C.ar    1  UNL1       -0.0134
      4 C          -1.2725    0.3382   -0.1553 C.ar    1  UNL1       -0.0079
      5 C          -1.7850    1.3768   -0.8724 C.ar    1  UNL1       -0.0295
      6 C          -3.1700    1.6659   -0.7165 C.ar    1  UNL1        0.0476
      7 N          -3.8166    2.6764   -1.3684 N.ar    1  UNL1       -0.3606
      8 C          -5.1420    2.6711   -0.9858 C.ar    1  UNL1        0.0027
      9 C          -5.3375    1.6436   -0.0799 C.ar    1  UNL1       -0.0361
     10 C          -4.0910    1.0165    0.0834 C.ar    1  UNL1        0.0071
     11 C          -3.6160   -0.0745    0.8491 C.ar    1  UNL1       -0.0121
     12 C          -4.2158   -0.9092    1.7048 C.2     1  UNL1       -0.0719
     13 C           0.1515    0.0174   -0.3008 C.ar    1  UNL1       -0.0092
     14 C           1.0355    0.5754    0.5606 C.ar    1  UNL1       -0.0451
     15 C           2.4821    0.3019    0.4824 C.ar    1  UNL1       -0.0085
     16 C           3.4405    0.8577    1.3493 C.ar    1  UNL1       -0.0031
     17 C           3.1776    1.7245    2.3855 C.ar    1  UNL1       -0.0160
     18 S           4.6108    2.1859    3.2191 S.2     1  UNL1       -0.1039
     19 C           5.6023    1.2256    2.1981 C.ar    1  UNL1       -0.0166
     20 C           4.8546    0.5735    1.2491 C.ar    1  UNL1       -0.0103
     21 C           5.4348   -0.2693    0.3013 C.ar    1  UNL1       -0.0529
     22 C           4.4770   -0.8315   -0.5722 C.ar    1  UNL1       -0.0529
     23 C           3.0684   -0.5681   -0.4968 C.ar    1  UNL1       -0.0098
     24 C           2.1078   -1.1820   -1.4319 C.ar    1  UNL1       -0.0135
     25 C           2.2990   -2.0372   -2.4501 C.2     1  UNL1       -0.0719
     26 C           0.9795   -2.3661   -3.0871 C.3     1  UNL1       -0.0148
     27 C           0.0157   -1.5611   -2.2683 C.2     1  UNL1       -0.0719
     28 C           0.6813   -0.8832   -1.3190 C.ar    1  UNL1       -0.0135
     29 H          -3.0910   -1.8068    3.3064 H       1  UNL1        0.0350
     30 H          -3.4747   -2.9151    1.9554 H       1  UNL1        0.0350
     31 H          -0.9835   -1.9558    1.6413 H       1  UNL1        0.0581
     32 H          -1.1666    1.9666   -1.5413 H       1  UNL1        0.0644
     33 H          -3.3993    3.3241   -2.0235 H       1  UNL1        0.1653
     34 H          -5.8300    3.3999   -1.3925 H       1  UNL1        0.0807
     35 H          -6.2736    1.3886    0.3979 H       1  UNL1        0.0639
     36 H          -5.2571   -0.8923    1.9843 H       1  UNL1        0.0581
     37 H           0.6813    1.2442    1.3372 H       1  UNL1        0.0630
     38 H           2.2332    2.1279    2.7210 H       1  UNL1        0.0700
     39 H           6.6716    1.1983    2.3567 H       1  UNL1        0.0699
     40 H           6.4923   -0.4853    0.2224 H       1  UNL1        0.0624
     41 H           4.8465   -1.5047   -1.3449 H       1  UNL1        0.0624
     42 H           3.2393   -2.4469   -2.7828 H       1  UNL1        0.0581
     43 H           0.9605   -2.0566   -4.1361 H       1  UNL1        0.0350
     44 H           0.7624   -3.4357   -3.0133 H       1  UNL1        0.0350
     45 H          -1.0520   -1.5453   -2.4293 H       1  UNL1        0.0581
@<TRIPOS>BOND
     1     1     2    1
     2     2     3    2
     3     3     4   ar
     4     4     5   ar
     5     5     6   ar
     6     6     7   ar
     7     7     8   ar
     8     8     9   ar
     9     9    10   ar
    10    10    11   ar
    11    11    12    2
    12     4    13    1
    13    13    14   ar
    14    14    15   ar
    15    15    16   ar
    16    16    17   ar
    17    17    18   ar
    18    18    19   ar
    19    19    20   ar
    20    20    21   ar
    21    21    22   ar
    22    22    23   ar
    23    23    24   ar
    24    24    25    2
    25    25    26    1
    26    26    27    1
    27    27    28    2
    28    12     1    1
    29    28    13   ar
    30    11     3   ar
    31    23    15   ar
    32    28    24   ar
    33    10     6   ar
    34    20    16   ar
    35     1    29    1
    36     1    30    1
    37     2    31    1
    38     5    32    1
    39     7    33    1
    40     8    34    1
    41     9    35    1
    42    12    36    1
    43    14    37    1
    44    17    38    1
    45    19    39    1
    46    21    40    1
    47    22    41    1
    48    25    42    1
    49    26    43    1
    50    26    44    1
    51    27    45    1
