@<TRIPOS>MOLECULE
*****
 31 35 0 0 0
SMALL
GASTEIGER

@<TRIPOS>ATOM
      1 C          -1.2635   -3.0557   -1.3488 C.3     1  UNL1       -0.0148
      2 C          -0.1695   -2.0931   -0.9717 C.2     1  UNL1       -0.0719
      3 C          -0.7049   -0.9807   -0.4409 C.ar    1  UNL1       -0.0129
      4 C          -0.0401    0.2343    0.0709 C.ar    1  UNL1       -0.0019
      5 C          -0.8203    1.2437    0.5481 C.ar    1  UNL1       -0.0290
      6 C          -2.2307    1.0471    0.5277 C.ar    1  UNL1        0.0476
      7 N          -3.1361    1.9639    0.9798 N.ar    1  UNL1       -0.3606
      8 C          -4.4053    1.4503    0.8116 C.ar    1  UNL1        0.0027
      9 C          -4.3026    0.1910    0.2476 C.ar    1  UNL1       -0.0361
     10 C          -2.9305   -0.0548    0.0734 C.ar    1  UNL1        0.0071
     11 C          -2.1681   -1.1309   -0.4400 C.ar    1  UNL1       -0.0121
     12 C          -2.5108   -2.3163   -0.9561 C.2     1  UNL1       -0.0719
     13 C           1.3768    0.4431    0.0903 C.ar    1  UNL1        0.0216
     14 C           2.1316    1.2307   -0.7594 C.ar    1  UNL1       -0.0326
     15 C           3.5170    1.1861   -0.4223 C.ar    1  UNL1        0.0270
     16 S           4.9659    1.9187   -1.0628 S.2     1  UNL1       -0.0961
     17 C           5.9025    1.1268    0.1342 C.ar    1  UNL1       -0.0227
     18 C           5.1671    0.3388    0.9894 C.ar    1  UNL1       -0.0404
     19 C           3.7802    0.3842    0.6521 C.ar    1  UNL1        0.0270
     20 S           2.3329   -0.3455    1.2896 S.2     1  UNL1       -0.0877
     21 H          -1.1701   -3.9929   -0.7923 H       1  UNL1        0.0350
     22 H          -1.2507   -3.2618   -2.4231 H       1  UNL1        0.0350
     23 H           0.8824   -2.2881   -1.1134 H       1  UNL1        0.0581
     24 H          -0.3980    2.1639    0.9386 H       1  UNL1        0.0645
     25 H          -2.9199    2.8696    1.3747 H       1  UNL1        0.1653
     26 H          -5.2708    2.0264    1.1096 H       1  UNL1        0.0807
     27 H          -5.1283   -0.4614   -0.0020 H       1  UNL1        0.0639
     28 H          -3.5150   -2.6897   -1.0781 H       1  UNL1        0.0581
     29 H           1.7185    1.8041   -1.5800 H       1  UNL1        0.0640
     30 H           6.9727    1.2836    0.1496 H       1  UNL1        0.0694
     31 H           5.5873   -0.2355    1.8051 H       1  UNL1        0.0634
@<TRIPOS>BOND
     1     1     2    1
     2     2     3    2
     3     3     4   ar
     4     4     5   ar
     5     5     6   ar
     6     6     7   ar
     7     7     8   ar
     8     8     9   ar
     9     9    10   ar
    10    10    11   ar
    11    11    12    2
    12     4    13    1
    13    13    14   ar
    14    14    15   ar
    15    15    16   ar
    16    16    17   ar
    17    17    18   ar
    18    18    19   ar
    19    19    20   ar
    20    12     1    1
    21    20    13   ar
    22    11     3   ar
    23    19    15   ar
    24    10     6   ar
    25     1    21    1
    26     1    22    1
    27     2    23    1
    28     5    24    1
    29     7    25    1
    30     8    26    1
    31     9    27    1
    32    12    28    1
    33    14    29    1
    34    17    30    1
    35    18    31    1
