@<TRIPOS>MOLECULE
*****
 44 50 0 0 0
SMALL
GASTEIGER

@<TRIPOS>ATOM
      1 C           1.9148   -3.5187    1.1033 C.3     1  UNL1        0.0000
      2 C           2.8885   -2.4813    0.6457 C.2     1  UNL1        0.0000
      3 C           2.2298   -1.3653    0.2932 C.ar    1  UNL1        0.0000
      4 C           2.7517   -0.0776   -0.1284 C.ar    1  UNL1        0.0000
      5 C           1.8399    0.9134   -0.2590 C.ar    1  UNL1        0.0000
      6 C           0.3711    0.7654   -0.0685 C.ar    1  UNL1        0.0000
      7 C          -0.1620   -0.4790    0.2129 C.ar    1  UNL1        0.0000
      8 C          -1.6012   -0.5558    0.2231 C.ar    1  UNL1        0.0000
      9 N          -2.3189   -1.7406    0.2660 N.ar    1  UNL1        0.0000
     10 C          -3.6303   -1.4123    0.2533 C.ar    1  UNL1        0.0000
     11 C          -4.8185   -2.1477    0.2697 C.2     1  UNL1        0.0000
     12 C          -5.7995   -1.2151    0.1767 C.2     1  UNL1        0.0000
     13 C          -5.2417    0.2307    0.0901 C.3     1  UNL1        0.0000
     14 C          -3.7952   -0.0610    0.1513 C.ar    1  UNL1        0.0000
     15 C          -2.5207    0.4893    0.0966 C.ar    1  UNL1        0.0000
     16 C          -2.0275    1.8017   -0.0940 C.ar    1  UNL1        0.0000
     17 C          -2.7415    2.9365   -0.2073 C.2     1  UNL1        0.0000
     18 SI         -1.6201    4.3929   -0.4710 Si      1  UNL1        0.0000
     19 C          -0.1597    3.2251   -0.3968 C.2     1  UNL1        0.0000
     20 C          -0.5473    1.9432   -0.2049 C.ar    1  UNL1        0.0000
     21 C           0.7889   -1.5675    0.4773 C.ar    1  UNL1        0.0000
     22 C           0.6020   -2.8057    0.9697 C.2     1  UNL1        0.0000
     23 C           4.1191    0.2472   -0.4202 C.ar    1  UNL1        0.0000
     24 C           5.1252   -0.5371   -0.9803 C.ar    1  UNL1        0.0000
     25 C           6.3011    0.2445   -1.0709 C.ar    1  UNL1        0.0000
     26 C           5.9678    1.4762   -0.5730 C.ar    1  UNL1        0.0000
     27 O           4.6700    1.4956   -0.1893 O.2     1  UNL1        0.0000
     28 H           1.9499   -4.4071    0.4662 H       1  UNL1        0.0000
     29 H           2.1025   -3.8025    2.1430 H       1  UNL1        0.0000
     30 H           3.9578   -2.6208    0.6616 H       1  UNL1        0.0000
     31 H           2.1796    1.8957   -0.5736 H       1  UNL1        0.0000
     32 H          -1.9415   -2.6748    0.2486 H       1  UNL1        0.0000
     33 H          -4.9298   -3.2185    0.3388 H       1  UNL1        0.0000
     34 H          -6.8577   -1.4308    0.1602 H       1  UNL1        0.0000
     35 H          -5.5327    0.6994   -0.8537 H       1  UNL1        0.0000
     36 H          -5.5822    0.8264    0.9411 H       1  UNL1        0.0000
     37 H          -3.8131    3.0380   -0.1621 H       1  UNL1        0.0000
     38 H          -1.7837    5.0057   -1.8115 H       1  UNL1        0.0000
     39 H          -1.6401    5.3451    0.6655 H       1  UNL1        0.0000
     40 H           0.8387    3.6173   -0.4895 H       1  UNL1        0.0000
     41 H          -0.3192   -3.2563    1.2941 H       1  UNL1        0.0000
     42 H           5.0103   -1.5628   -1.3019 H       1  UNL1        0.0000
     43 H           7.2655   -0.0521   -1.4576 H       1  UNL1        0.0000
     44 H           6.5097    2.4012   -0.4343 H       1  UNL1        0.0000
@<TRIPOS>BOND
     1     1     2    1
     2     2     3    2
     3     3     4   ar
     4     4     5   ar
     5     5     6   ar
     6     6     7   ar
     7     7     8   ar
     8     8     9   ar
     9     9    10   ar
    10    10    11    1
    11    11    12    2
    12    12    13    1
    13    13    14    1
    14    14    15   ar
    15    15    16   ar
    16    16    17    2
    17    17    18    1
    18    18    19    1
    19    19    20    2
    20     7    21   ar
    21    21    22    2
    22     4    23    1
    23    23    24   ar
    24    24    25   ar
    25    25    26   ar
    26    26    27   ar
    27    22     1    1
    28    27    23   ar
    29    21     3   ar
    30    20     6   ar
    31    15     8   ar
    32    20    16   ar
    33    14    10   ar
    34     1    28    1
    35     1    29    1
    36     2    30    1
    37     5    31    1
    38     9    32    1
    39    11    33    1
    40    12    34    1
    41    13    35    1
    42    13    36    1
    43    17    37    1
    44    18    38    1
    45    18    39    1
    46    19    40    1
    47    22    41    1
    48    24    42    1
    49    25    43    1
    50    26    44    1
