@<TRIPOS>MOLECULE
*****
 45 51 0 0 0
SMALL
GASTEIGER

@<TRIPOS>ATOM
      1 C           1.6645   -3.2606    1.1391 C.3     1  UNL1        0.0000
      2 C           2.6652   -2.2516    0.6728 C.2     1  UNL1        0.0000
      3 C           2.0324   -1.1259    0.3050 C.ar    1  UNL1        0.0000
      4 C           2.5837    0.1592   -0.0836 C.ar    1  UNL1        0.0000
      5 C           1.6849    1.1671   -0.1806 C.ar    1  UNL1        0.0000
      6 C           0.2139    1.0319    0.0250 C.ar    1  UNL1        0.0000
      7 C          -0.3492   -0.2152    0.1458 C.ar    1  UNL1        0.0000
      8 C          -1.8326   -0.3466    0.0670 C.ar    1  UNL1        0.0000
      9 C          -2.5432   -1.4867   -0.3539 C.ar    1  UNL1        0.0000
     10 C          -2.0749   -2.6282   -0.9645 C.ar    1  UNL1        0.0000
     11 N          -3.1504   -3.4546   -1.2136 N.ar    1  UNL1        0.0000
     12 C          -4.3200   -2.8323   -0.8445 C.ar    1  UNL1        0.0000
     13 C          -3.9708   -1.6019   -0.3513 C.ar    1  UNL1        0.0000
     14 C          -4.8714   -0.6241    0.0331 C.ar    1  UNL1        0.0000
     15 C          -4.1885    0.5752    0.3283 C.ar    1  UNL1        0.0000
     16 C          -2.7479    0.7323    0.3069 C.ar    1  UNL1        0.0000
     17 C          -2.1256    2.0749    0.3829 C.ar    1  UNL1        0.0000
     18 C          -2.7788    3.2393    0.5865 C.2     1  UNL1        0.0000
     19 SI         -1.6316    4.7003    0.4642 Si      1  UNL1        0.0000
     20 C          -0.2441    3.4992    0.1350 C.2     1  UNL1        0.0000
     21 C          -0.6683    2.2151    0.1341 C.ar    1  UNL1        0.0000
     22 C           0.5880   -1.3063    0.4458 C.ar    1  UNL1        0.0000
     23 C           0.3713   -2.5191    0.9853 C.2     1  UNL1        0.0000
     24 C           3.9700    0.4266   -0.3527 C.ar    1  UNL1        0.0000
     25 C           4.7052    1.6083   -0.2508 C.ar    1  UNL1        0.0000
     26 C           6.0405    1.3390   -0.6342 C.ar    1  UNL1        0.0000
     27 C           6.0736    0.0075   -0.9517 C.ar    1  UNL1        0.0000
     28 O           4.8513   -0.5481   -0.7849 O.2     1  UNL1        0.0000
     29 H           1.6834   -4.1594    0.5162 H       1  UNL1        0.0000
     30 H           1.8388   -3.5317    2.1845 H       1  UNL1        0.0000
     31 H           3.7338   -2.4009    0.7006 H       1  UNL1        0.0000
     32 H           2.0182    2.1530   -0.4846 H       1  UNL1        0.0000
     33 H          -1.0846   -2.9386   -1.2667 H       1  UNL1        0.0000
     34 H          -3.0894   -4.3649   -1.6509 H       1  UNL1        0.0000
     35 H          -5.2770   -3.3093   -1.0058 H       1  UNL1        0.0000
     36 H          -5.9478   -0.7125    0.0251 H       1  UNL1        0.0000
     37 H          -4.8118    1.4408    0.5456 H       1  UNL1        0.0000
     38 H          -3.8290    3.3971    0.7629 H       1  UNL1        0.0000
     39 H          -1.4710    5.4115    1.7552 H       1  UNL1        0.0000
     40 H          -1.9259    5.5618   -0.7060 H       1  UNL1        0.0000
     41 H           0.7595    3.8722    0.0233 H       1  UNL1        0.0000
     42 H          -0.5808   -2.9206    1.2957 H       1  UNL1        0.0000
     43 H           4.3160    2.5620    0.0774 H       1  UNL1        0.0000
     44 H           6.8716    2.0286   -0.6699 H       1  UNL1        0.0000
     45 H           6.8489   -0.6637   -1.2931 H       1  UNL1        0.0000
@<TRIPOS>BOND
     1     1     2    1
     2     2     3    2
     3     3     4   ar
     4     4     5   ar
     5     5     6   ar
     6     6     7   ar
     7     7     8   ar
     8     8     9   ar
     9     9    10   ar
    10    10    11   ar
    11    11    12   ar
    12    12    13   ar
    13    13    14   ar
    14    14    15   ar
    15    15    16   ar
    16    16    17   ar
    17    17    18    2
    18    18    19    1
    19    19    20    1
    20    20    21    2
    21     7    22   ar
    22    22    23    2
    23     4    24    1
    24    24    25   ar
    25    25    26   ar
    26    26    27   ar
    27    27    28   ar
    28    23     1    1
    29    28    24   ar
    30    22     3   ar
    31    21     6   ar
    32    16     8   ar
    33    21    17   ar
    34    13     9   ar
    35     1    29    1
    36     1    30    1
    37     2    31    1
    38     5    32    1
    39    10    33    1
    40    11    34    1
    41    12    35    1
    42    14    36    1
    43    15    37    1
    44    18    38    1
    45    19    39    1
    46    19    40    1
    47    20    41    1
    48    23    42    1
    49    25    43    1
    50    26    44    1
    51    27    45    1
