@<TRIPOS>MOLECULE
*****
 42 48 0 0 0
SMALL
GASTEIGER

@<TRIPOS>ATOM
      1 SI          2.0335   -1.8906   -3.0291 Si      1  UNL1        0.0000
      2 C           2.9483   -0.9496   -1.7147 C.2     1  UNL1        0.0000
      3 C           2.1061   -0.3828   -0.8237 C.ar    1  UNL1        0.0000
      4 C           2.5219    0.5796    0.2029 C.ar    1  UNL1        0.0000
      5 C           1.5494    1.2469    0.8639 C.ar    1  UNL1        0.0000
      6 C           0.1249    0.9729    0.6344 C.ar    1  UNL1        0.0000
      7 C          -0.8981    1.7313    1.2084 C.ar    1  UNL1        0.0000
      8 C          -0.7678    2.8815    1.9521 C.ar    1  UNL1        0.0000
      9 N          -2.0348    3.3036    2.2843 N.ar    1  UNL1        0.0000
     10 C          -2.9712    2.4359    1.7695 C.ar    1  UNL1        0.0000
     11 C          -2.2942    1.4464    1.0931 C.ar    1  UNL1        0.0000
     12 C          -2.8548    0.3172    0.4503 C.ar    1  UNL1        0.0000
     13 C          -4.2827    0.0624    0.4073 C.ar    1  UNL1        0.0000
     14 C          -4.8491   -1.1024   -0.1269 C.ar    1  UNL1        0.0000
     15 C          -3.8671   -2.0018   -0.5220 C.ar    1  UNL1        0.0000
     16 C          -4.2046   -3.2640   -0.9480 C.ar    1  UNL1        0.0000
     17 S          -2.8103   -4.2228   -1.2105 S.2     1  UNL1        0.0000
     18 C          -1.7657   -2.9430   -0.7403 C.ar    1  UNL1        0.0000
     19 C          -2.4363   -1.7618   -0.5048 C.ar    1  UNL1        0.0000
     20 C          -1.8007   -0.5336   -0.1052 C.ar    1  UNL1        0.0000
     21 C          -0.3751   -0.1214   -0.1424 C.ar    1  UNL1        0.0000
     22 C           0.6674   -0.7025   -1.0453 C.ar    1  UNL1        0.0000
     23 C           0.4451   -1.3640   -2.2017 C.2     1  UNL1        0.0000
     24 C           3.8904    0.8665    0.5400 C.ar    1  UNL1        0.0000
     25 N           4.7953   -0.0125    0.9375 N.ar    1  UNL1        0.0000
     26 C           6.0141    0.5978    1.1487 C.ar    1  UNL1        0.0000
     27 C           6.0538    1.9487    0.8957 C.ar    1  UNL1        0.0000
     28 S           4.5159    2.4835    0.3724 S.2     1  UNL1        0.0000
     29 H           2.1936   -1.2919   -4.3763 H       1  UNL1        0.0000
     30 H           2.2499   -3.3551   -2.9477 H       1  UNL1        0.0000
     31 H           4.0199   -0.8307   -1.7632 H       1  UNL1        0.0000
     32 H           1.7940    1.9655    1.6388 H       1  UNL1        0.0000
     33 H           0.0927    3.4532    2.2710 H       1  UNL1        0.0000
     34 H          -2.2468    4.1286    2.8307 H       1  UNL1        0.0000
     35 H          -4.0226    2.6109    1.9493 H       1  UNL1        0.0000
     36 H          -4.9637    0.8026    0.8245 H       1  UNL1        0.0000
     37 H          -5.9150   -1.2854   -0.1384 H       1  UNL1        0.0000
     38 H          -5.1874   -3.6955   -1.0800 H       1  UNL1        0.0000
     39 H          -0.7095   -3.1540   -0.6651 H       1  UNL1        0.0000
     40 H          -0.4999   -1.5965   -2.6642 H       1  UNL1        0.0000
     41 H           6.8515    0.0009    1.4886 H       1  UNL1        0.0000
     42 H           6.8900    2.6262    0.9863 H       1  UNL1        0.0000
@<TRIPOS>BOND
     1     1     2    1
     2     2     3    2
     3     3     4   ar
     4     4     5   ar
     5     5     6   ar
     6     6     7   ar
     7     7     8   ar
     8     8     9   ar
     9     9    10   ar
    10    10    11   ar
    11    11    12   ar
    12    12    13   ar
    13    13    14   ar
    14    14    15   ar
    15    15    16   ar
    16    16    17   ar
    17    17    18   ar
    18    18    19   ar
    19    19    20   ar
    20    20    21   ar
    21    21    22   ar
    22    22    23    2
    23     4    24    1
    24    24    25   ar
    25    25    26   ar
    26    26    27   ar
    27    27    28   ar
    28    23     1    1
    29    28    24   ar
    30    22     3   ar
    31    21     6   ar
    32    11     7   ar
    33    20    12   ar
    34    19    15   ar
    35     1    29    1
    36     1    30    1
    37     2    31    1
    38     5    32    1
    39     8    33    1
    40     9    34    1
    41    10    35    1
    42    13    36    1
    43    14    37    1
    44    16    38    1
    45    18    39    1
    46    23    40    1
    47    26    41    1
    48    27    42    1
