@<TRIPOS>MOLECULE
*****
 50 57 0 0 0
SMALL
GASTEIGER

@<TRIPOS>ATOM
      1 C          -2.3008   -2.0849   -2.5416 C.3     1  UNL1       -0.0148
      2 C          -2.9461   -1.7966   -1.2228 C.2     1  UNL1       -0.0719
      3 C          -2.0979   -1.0916   -0.4593 C.ar    1  UNL1       -0.0135
      4 C          -2.2176   -0.7152    0.9308 C.ar    1  UNL1       -0.0099
      5 C          -1.1140   -0.1896    1.5056 C.ar    1  UNL1       -0.0451
      6 C           0.1601    0.0782    0.7874 C.ar    1  UNL1       -0.0087
      7 C           0.2333   -0.0583   -0.5820 C.ar    1  UNL1       -0.0014
      8 C           1.4459    0.4605   -1.2975 C.ar    1  UNL1        0.0053
      9 C           1.5050    0.8711   -2.6433 C.ar    1  UNL1        0.0290
     10 C           0.4768    1.0817   -3.5384 C.ar    1  UNL1        0.1000
     11 O           0.9549    1.5062   -4.7552 O.2     1  UNL1       -0.4698
     12 C           2.3133    1.6418   -4.6399 C.ar    1  UNL1        0.1001
     13 C           2.6369    1.3036   -3.3664 C.ar    1  UNL1        0.0312
     14 C           3.8719    1.3771   -2.6925 C.ar    1  UNL1        0.0315
     15 C           5.1397    1.7646   -3.1064 C.ar    1  UNL1       -0.0154
     16 C           5.8854    1.7057   -1.9457 C.ar    1  UNL1        0.0932
     17 O           5.1219    1.3213   -0.8777 O.2     1  UNL1       -0.4623
     18 C           3.8464    1.1005   -1.3416 C.ar    1  UNL1        0.1437
     19 C           2.6917    0.7051   -0.6251 C.ar    1  UNL1        0.0337
     20 C           2.6572    0.6776    0.8354 C.ar    1  UNL1       -0.0099
     21 C           3.6124    0.9104    1.7501 C.2     1  UNL1       -0.0718
     22 C           3.0191    0.8613    3.1236 C.3     1  UNL1       -0.0148
     23 C           1.5779    0.5619    2.8374 C.2     1  UNL1       -0.0719
     24 C           1.3810    0.4568    1.5109 C.ar    1  UNL1       -0.0133
     25 C          -0.8729   -0.8037   -1.2035 C.ar    1  UNL1       -0.0129
     26 C          -0.9567   -1.4333   -2.3889 C.2     1  UNL1       -0.0719
     27 C          -3.4245   -0.9034    1.7515 C.ar    1  UNL1       -0.0173
     28 C          -4.5009   -0.0160    1.6306 C.ar    1  UNL1       -0.0540
     29 C          -5.6502   -0.1947    2.4027 C.ar    1  UNL1       -0.0612
     30 C          -5.7313   -1.2616    3.2970 C.ar    1  UNL1       -0.0617
     31 C          -4.6651   -2.1519    3.4202 C.ar    1  UNL1       -0.0612
     32 C          -3.5146   -1.9749    2.6492 C.ar    1  UNL1       -0.0540
     33 H          -2.8645   -1.6421   -3.3677 H       1  UNL1        0.0350
     34 H          -2.1972   -3.1624   -2.7001 H       1  UNL1        0.0350
     35 H          -3.9112   -2.1739   -0.9201 H       1  UNL1        0.0581
     36 H          -1.1470    0.0953    2.5534 H       1  UNL1        0.0630
     37 H          -0.6002    1.0032   -3.4915 H       1  UNL1        0.1036
     38 H           2.8333    2.0091   -5.5124 H       1  UNL1        0.1036
     39 H           5.4892    2.0617   -4.0839 H       1  UNL1        0.0655
     40 H           6.9222    1.9098   -1.7156 H       1  UNL1        0.1030
     41 H           4.6496    1.1358    1.5567 H       1  UNL1        0.0581
     42 H           3.1279    1.8214    3.6365 H       1  UNL1        0.0350
     43 H           3.4758    0.0683    3.7229 H       1  UNL1        0.0350
     44 H           0.8436    0.4181    3.6140 H       1  UNL1        0.0581
     45 H          -0.1843   -1.5070   -3.1384 H       1  UNL1        0.0581
     46 H          -4.4468    0.8180    0.9345 H       1  UNL1        0.0624
     47 H          -6.4818    0.4983    2.3054 H       1  UNL1        0.0618
     48 H          -6.6268   -1.4002    3.8973 H       1  UNL1        0.0618
     49 H          -4.7295   -2.9853    4.1147 H       1  UNL1        0.0618
     50 H          -2.6905   -2.6778    2.7472 H       1  UNL1        0.0624
@<TRIPOS>BOND
     1     1     2    1
     2     2     3    2
     3     3     4   ar
     4     4     5   ar
     5     5     6   ar
     6     6     7   ar
     7     7     8   ar
     8     8     9   ar
     9     9    10   ar
    10    10    11   ar
    11    11    12   ar
    12    12    13   ar
    13    13    14   ar
    14    14    15   ar
    15    15    16   ar
    16    16    17   ar
    17    17    18   ar
    18    18    19   ar
    19    19    20   ar
    20    20    21    2
    21    21    22    1
    22    22    23    1
    23    23    24    2
    24     7    25   ar
    25    25    26    2
    26     4    27    1
    27    27    28   ar
    28    28    29   ar
    29    29    30   ar
    30    30    31   ar
    31    31    32   ar
    32    26     1    1
    33    32    27   ar
    34    25     3   ar
    35    24     6   ar
    36    19     8   ar
    37    24    20   ar
    38    13     9   ar
    39    18    14   ar
    40     1    33    1
    41     1    34    1
    42     2    35    1
    43     5    36    1
    44    10    37    1
    45    12    38    1
    46    15    39    1
    47    16    40    1
    48    21    41    1
    49    22    42    1
    50    22    43    1
    51    23    44    1
    52    26    45    1
    53    28    46    1
    54    29    47    1
    55    30    48    1
    56    31    49    1
    57    32    50    1
