@<TRIPOS>MOLECULE
*****
 41 47 0 0 0
SMALL
GASTEIGER

@<TRIPOS>ATOM
      1 C          -2.3316   -2.9295    1.3242 C.3     1  UNL1       -0.0148
      2 C          -2.9396   -2.0813    0.2527 C.2     1  UNL1       -0.0719
      3 C          -2.0548   -1.1483   -0.1330 C.ar    1  UNL1       -0.0129
      4 C          -2.2404   -0.0314   -1.0364 C.ar    1  UNL1       -0.0018
      5 C          -1.2372    0.8746   -1.0616 C.ar    1  UNL1       -0.0446
      6 C           0.0358    0.7514   -0.3036 C.ar    1  UNL1       -0.0086
      7 C           0.3357   -0.4007    0.3885 C.ar    1  UNL1       -0.0000
      8 C           1.7363   -0.5932    0.9213 C.ar    1  UNL1        0.0191
      9 C           2.3071   -1.8814    1.1761 C.ar    1  UNL1        0.1082
     10 N           1.7897   -3.0931    0.9009 N.ar    1  UNL1       -0.1901
     11 S           2.8619   -4.2386    1.4174 S.2     1  UNL1        0.1165
     12 N           4.0781   -3.2777    1.9960 N.ar    1  UNL1       -0.1908
     13 C           3.6951   -2.0099    1.7813 C.ar    1  UNL1        0.1005
     14 C           4.4841   -0.8776    2.0700 C.ar    1  UNL1       -0.0329
     15 C           3.9463    0.3540    1.6782 C.ar    1  UNL1       -0.0513
     16 C           2.6565    0.4926    1.0955 C.ar    1  UNL1       -0.0077
     17 C           2.2408    1.7709    0.5033 C.ar    1  UNL1       -0.0134
     18 C           2.8746    2.9550    0.4569 C.2     1  UNL1       -0.0719
     19 C           2.0710    3.9248   -0.3540 C.3     1  UNL1       -0.0148
     20 C           0.8855    3.0985   -0.7517 C.2     1  UNL1       -0.0719
     21 C           0.9965    1.8557   -0.2488 C.ar    1  UNL1       -0.0135
     22 C          -0.7982   -1.3175    0.5995 C.ar    1  UNL1       -0.0128
     23 C          -0.9776   -2.3083    1.4906 C.2     1  UNL1       -0.0719
     24 C          -3.3844    0.2157   -1.8537 C.ar    1  UNL1        0.0394
     25 C          -4.2760    1.2778   -1.8488 C.ar    1  UNL1        0.0425
     26 N          -5.2876    1.2390   -2.7897 N.ar    1  UNL1       -0.2551
     27 C          -5.1622    0.1447   -3.5052 C.ar    1  UNL1        0.0652
     28 S          -3.8499   -0.8800   -3.1044 S.2     1  UNL1       -0.0754
     29 H          -2.9090   -2.8632    2.2510 H       1  UNL1        0.0350
     30 H          -2.2540   -3.9746    1.0112 H       1  UNL1        0.0350
     31 H          -3.9579   -2.1807   -0.0903 H       1  UNL1        0.0581
     32 H          -1.3183    1.7411   -1.7122 H       1  UNL1        0.0630
     33 H           5.4741   -0.9679    2.5002 H       1  UNL1        0.0640
     34 H           4.5783    1.2320    1.8058 H       1  UNL1        0.0624
     35 H           3.8287    3.2014    0.8951 H       1  UNL1        0.0581
     36 H           1.7682    4.7866    0.2477 H       1  UNL1        0.0350
     37 H           2.6282    4.2640   -1.2321 H       1  UNL1        0.0350
     38 H           0.0638    3.4947   -1.3270 H       1  UNL1        0.0581
     39 H          -0.2807   -2.6352    2.2450 H       1  UNL1        0.0581
     40 H          -4.2304    2.1175   -1.1652 H       1  UNL1        0.0841
     41 H          -5.8462   -0.1021   -4.3065 H       1  UNL1        0.0907
@<TRIPOS>BOND
     1     1     2    1
     2     2     3    2
     3     3     4   ar
     4     4     5   ar
     5     5     6   ar
     6     6     7   ar
     7     7     8   ar
     8     8     9   ar
     9     9    10   ar
    10    10    11   ar
    11    11    12   ar
    12    12    13   ar
    13    13    14   ar
    14    14    15   ar
    15    15    16   ar
    16    16    17   ar
    17    17    18    2
    18    18    19    1
    19    19    20    1
    20    20    21    2
    21     7    22   ar
    22    22    23    2
    23     4    24    1
    24    24    25   ar
    25    25    26   ar
    26    26    27   ar
    27    27    28   ar
    28    23     1    1
    29    28    24   ar
    30    22     3   ar
    31    21     6   ar
    32    16     8   ar
    33    21    17   ar
    34    13     9   ar
    35     1    29    1
    36     1    30    1
    37     2    31    1
    38     5    32    1
    39    14    33    1
    40    15    34    1
    41    18    35    1
    42    19    36    1
    43    19    37    1
    44    20    38    1
    45    23    39    1
    46    25    40    1
    47    27    41    1
