@<TRIPOS>MOLECULE
*****
 48 55 0 0 0
SMALL
GASTEIGER

@<TRIPOS>ATOM
      1 C          -1.6480    3.0932    1.8909 C.3     1  UNL1       -0.0148
      2 C          -2.5255    1.9443    1.5120 C.2     1  UNL1       -0.0719
      3 C          -1.7795    0.9773    0.9553 C.ar    1  UNL1       -0.0129
      4 C          -2.1759   -0.3552    0.5488 C.ar    1  UNL1       -0.0013
      5 C          -1.1714   -1.1794    0.1774 C.ar    1  UNL1       -0.0446
      6 C           0.2631   -0.7950    0.1081 C.ar    1  UNL1       -0.0086
      7 C           0.6537    0.5072    0.3240 C.ar    1  UNL1       -0.0006
      8 C           2.0822    0.9186    0.0279 C.ar    1  UNL1        0.0111
      9 C           2.4496    2.2528   -0.1491 C.ar    1  UNL1        0.0367
     10 N           3.6933    2.7411   -0.3693 N.ar    1  UNL1       -0.2528
     11 C           4.6612    1.8040   -0.4526 C.ar    1  UNL1        0.0891
     12 C           6.0468    1.9975   -0.6549 C.ar    1  UNL1       -0.0183
     13 C           6.6299    0.7531   -0.6988 C.ar    1  UNL1        0.0042
     14 N           5.6357   -0.1785   -0.5367 N.ar    1  UNL1       -0.3589
     15 C           4.4133    0.4336   -0.3749 C.ar    1  UNL1        0.0734
     16 C           3.1043   -0.0375   -0.1781 C.ar    1  UNL1        0.0170
     17 C           2.7190   -1.4458   -0.2743 C.ar    1  UNL1       -0.0114
     18 C           3.4227   -2.5694   -0.4976 C.2     1  UNL1       -0.0719
     19 C           2.4999   -3.7482   -0.5699 C.3     1  UNL1       -0.0148
     20 C           1.1629   -3.1154   -0.3559 C.2     1  UNL1       -0.0719
     21 C           1.3001   -1.7878   -0.1897 C.ar    1  UNL1       -0.0134
     22 C          -0.3812    1.4034    0.8767 C.ar    1  UNL1       -0.0128
     23 C          -0.2921    2.6125    1.4610 C.2     1  UNL1       -0.0719
     24 C          -3.5068   -0.8527    0.5129 C.ar    1  UNL1        0.0438
     25 S          -4.1082   -2.1518    1.5005 S.2     1  UNL1       -0.0939
     26 C          -5.7172   -2.0529    0.8459 C.ar    1  UNL1       -0.0145
     27 C          -5.7243   -1.0624   -0.0684 C.ar    1  UNL1        0.0073
     28 C          -6.5882   -0.4046   -0.9776 C.ar    1  UNL1       -0.0361
     29 C          -5.8246    0.5887   -1.6284 C.ar    1  UNL1        0.0028
     30 N          -4.5053    0.5998   -1.1796 N.ar    1  UNL1       -0.3598
     31 C          -4.5282   -0.4061   -0.2543 C.ar    1  UNL1        0.0614
     32 H          -1.9321    4.0054    1.3585 H       1  UNL1        0.0350
     33 H          -1.6767    3.2707    2.9700 H       1  UNL1        0.0350
     34 H          -3.5825    1.8920    1.7276 H       1  UNL1        0.0581
     35 H          -1.4093   -2.1913   -0.1390 H       1  UNL1        0.0630
     36 H           1.7046    3.0415   -0.1602 H       1  UNL1        0.0836
     37 H           6.5514    2.9478   -0.7590 H       1  UNL1        0.0654
     38 H           7.6596    0.4496   -0.8325 H       1  UNL1        0.0807
     39 H           5.7959   -1.1728   -0.5090 H       1  UNL1        0.1654
     40 H           4.4817   -2.6793   -0.6381 H       1  UNL1        0.0581
     41 H           2.5556   -4.2342   -1.5483 H       1  UNL1        0.0350
     42 H           2.7254   -4.4743    0.2166 H       1  UNL1        0.0350
     43 H           0.2469   -3.6837   -0.3199 H       1  UNL1        0.0581
     44 H           0.5999    3.1835    1.6626 H       1  UNL1        0.0581
     45 H          -6.5053   -2.7125    1.1781 H       1  UNL1        0.0700
     46 H          -7.6357   -0.6060   -1.1587 H       1  UNL1        0.0639
     47 H          -6.1233    1.2984   -2.3894 H       1  UNL1        0.0807
     48 H          -3.7174    1.1807   -1.4420 H       1  UNL1        0.1654
@<TRIPOS>BOND
     1     1     2    1
     2     2     3    2
     3     3     4   ar
     4     4     5   ar
     5     5     6   ar
     6     6     7   ar
     7     7     8   ar
     8     8     9   ar
     9     9    10   ar
    10    10    11   ar
    11    11    12   ar
    12    12    13   ar
    13    13    14   ar
    14    14    15   ar
    15    15    16   ar
    16    16    17   ar
    17    17    18    2
    18    18    19    1
    19    19    20    1
    20    20    21    2
    21     7    22   ar
    22    22    23    2
    23     4    24    1
    24    24    25   ar
    25    25    26   ar
    26    26    27   ar
    27    27    28   ar
    28    28    29   ar
    29    29    30   ar
    30    30    31   ar
    31    23     1    1
    32    31    24   ar
    33    22     3   ar
    34    31    27   ar
    35    21     6   ar
    36    16     8   ar
    37    21    17   ar
    38    15    11   ar
    39     1    32    1
    40     1    33    1
    41     2    34    1
    42     5    35    1
    43     9    36    1
    44    12    37    1
    45    13    38    1
    46    14    39    1
    47    18    40    1
    48    19    41    1
    49    19    42    1
    50    20    43    1
    51    23    44    1
    52    26    45    1
    53    28    46    1
    54    29    47    1
    55    30    48    1
