@<TRIPOS>MOLECULE
*****
 47 54 0 0 0
SMALL
GASTEIGER

@<TRIPOS>ATOM
      1 C           1.8079   -3.0040   -1.8417 C.3     1  UNL1       -0.0148
      2 C           2.6955   -2.1141   -1.0379 C.2     1  UNL1       -0.0719
      3 C           1.9587   -1.1827   -0.4097 C.ar    1  UNL1       -0.0129
      4 C           2.4120   -0.2087    0.5744 C.ar    1  UNL1        0.0003
      5 C           1.4564    0.4990    1.2159 C.ar    1  UNL1       -0.0445
      6 C           0.0288    0.3557    0.8889 C.ar    1  UNL1       -0.0069
      7 C          -0.9717    1.0534    1.5657 C.ar    1  UNL1        0.0078
      8 C          -0.8197    1.8758    2.6586 C.ar    1  UNL1        0.0100
      9 N          -2.0680    2.3397    2.9997 N.ar    1  UNL1       -0.3659
     10 C          -3.0076    1.8315    2.1353 C.ar    1  UNL1        0.0101
     11 C          -2.3606    1.0226    1.2295 C.ar    1  UNL1        0.0098
     12 C          -2.9324    0.3174    0.1328 C.ar    1  UNL1        0.0207
     13 C          -1.9133   -0.3995   -0.5935 C.ar    1  UNL1        0.0112
     14 C          -2.4068   -0.9930   -1.7566 C.ar    1  UNL1        0.0367
     15 N          -3.6978   -1.0216   -2.1705 N.ar    1  UNL1       -0.2528
     16 C          -4.6103   -0.3952   -1.4173 C.ar    1  UNL1        0.0898
     17 C          -5.9322   -0.4379   -1.8330 C.ar    1  UNL1       -0.0328
     18 C          -6.9350    0.2029   -1.1164 C.ar    1  UNL1       -0.0415
     19 C          -6.5659    0.8842    0.0195 C.ar    1  UNL1        0.0284
     20 N          -5.2932    0.9521    0.4594 N.ar    1  UNL1       -0.2528
     21 C          -4.3108    0.3171   -0.2429 C.ar    1  UNL1        0.0975
     22 C          -0.4985   -0.4517   -0.1770 C.ar    1  UNL1       -0.0006
     23 C           0.5423   -1.3446   -0.7758 C.ar    1  UNL1       -0.0128
     24 C           0.4482   -2.4387   -1.5550 C.2     1  UNL1       -0.0719
     25 C           3.7677    0.0362    0.9290 C.ar    1  UNL1        0.0627
     26 S           4.4448   -0.1667    2.5190 S.2     1  UNL1       -0.0923
     27 C           6.0453    0.3048    2.0196 C.ar    1  UNL1       -0.0129
     28 C           5.9960    0.5841    0.7004 C.ar    1  UNL1        0.0278
     29 C           6.8318    1.0027   -0.3462 C.ar    1  UNL1       -0.0156
     30 C           5.9979    1.0644   -1.4702 C.ar    1  UNL1        0.0932
     31 O           4.6833    0.7146   -1.2225 O.2     1  UNL1       -0.4618
     32 C           4.7638    0.4372    0.1098 C.ar    1  UNL1        0.1495
     33 H           1.8799   -4.0411   -1.5009 H       1  UNL1        0.0350
     34 H           2.0440   -2.9488   -2.9082 H       1  UNL1        0.0350
     35 H           3.7613   -2.2563   -0.9426 H       1  UNL1        0.0581
     36 H           1.7235    1.2383    1.9632 H       1  UNL1        0.0630
     37 H           0.0433    2.1750    3.2370 H       1  UNL1        0.0813
     38 H          -2.2681    2.9661    3.7687 H       1  UNL1        0.1648
     39 H          -4.0477    2.1041    2.2522 H       1  UNL1        0.0813
     40 H          -1.7480   -1.4546   -2.4823 H       1  UNL1        0.0836
     41 H          -6.1825   -0.9822   -2.7401 H       1  UNL1        0.0640
     42 H          -7.9679    0.1698   -1.4418 H       1  UNL1        0.0633
     43 H          -7.2972    1.4097    0.6265 H       1  UNL1        0.0830
     44 H          -0.4415   -2.9240   -1.9187 H       1  UNL1        0.0581
     45 H           6.8681    0.3352    2.7192 H       1  UNL1        0.0701
     46 H           7.8866    1.2353   -0.3236 H       1  UNL1        0.0655
     47 H           6.1896    1.3365   -2.5000 H       1  UNL1        0.1030
@<TRIPOS>BOND
     1     1     2    1
     2     2     3    2
     3     3     4   ar
     4     4     5   ar
     5     5     6   ar
     6     6     7   ar
     7     7     8   ar
     8     8     9   ar
     9     9    10   ar
    10    10    11   ar
    11    11    12   ar
    12    12    13   ar
    13    13    14   ar
    14    14    15   ar
    15    15    16   ar
    16    16    17   ar
    17    17    18   ar
    18    18    19   ar
    19    19    20   ar
    20    20    21   ar
    21    13    22   ar
    22    22    23   ar
    23    23    24    2
    24     4    25    1
    25    25    26   ar
    26    26    27   ar
    27    27    28   ar
    28    28    29   ar
    29    29    30   ar
    30    30    31   ar
    31    31    32   ar
    32    24     1    1
    33    32    25   ar
    34    23     3   ar
    35    32    28   ar
    36    22     6   ar
    37    11     7   ar
    38    21    12   ar
    39    21    16   ar
    40     1    33    1
    41     1    34    1
    42     2    35    1
    43     5    36    1
    44     8    37    1
    45     9    38    1
    46    10    39    1
    47    14    40    1
    48    17    41    1
    49    18    42    1
    50    19    43    1
    51    24    44    1
    52    27    45    1
    53    29    46    1
    54    30    47    1
