@<TRIPOS>MOLECULE
*****
 47 54 0 0 0
SMALL
GASTEIGER

@<TRIPOS>ATOM
      1 C           1.8319   -3.6794    0.0222 C.3     1  UNL1       -0.0148
      2 C           2.7221   -2.4894    0.1826 C.2     1  UNL1       -0.0719
      3 C           1.9873   -1.3645    0.1931 C.ar    1  UNL1       -0.0119
      4 C           2.4484    0.0106    0.3240 C.ar    1  UNL1        0.0105
      5 C           1.5067    0.9801    0.3039 C.ar    1  UNL1       -0.0435
      6 C           0.0764    0.6762    0.1373 C.ar    1  UNL1       -0.0055
      7 C          -0.9040    1.6680    0.1001 C.ar    1  UNL1        0.0078
      8 C          -0.7310    3.0286    0.1985 C.ar    1  UNL1        0.0100
      9 N          -1.9752    3.6079    0.1091 N.ar    1  UNL1       -0.3659
     10 C          -2.9379    2.6346   -0.0454 C.ar    1  UNL1        0.0101
     11 C          -2.2988    1.4169   -0.0556 C.ar    1  UNL1        0.0095
     12 C          -2.8727    0.1254   -0.1934 C.ar    1  UNL1        0.0142
     13 C          -4.2328   -0.2004   -0.3498 C.ar    1  UNL1       -0.0252
     14 C          -5.4542    0.6629   -0.4175 C.3     1  UNL1       -0.0079
     15 C          -6.5410   -0.3721   -0.5908 C.2     1  UNL1       -0.0791
     16 C          -6.0580   -1.6233   -0.6212 C.2     1  UNL1       -0.0565
     17 C          -4.6192   -1.5294   -0.4718 C.ar    1  UNL1       -0.0031
     18 C          -3.6553   -2.4993   -0.4367 C.ar    1  UNL1        0.0357
     19 N          -2.3370   -2.2164   -0.2875 N.ar    1  UNL1       -0.2537
     20 C          -1.8967   -0.9346   -0.1626 C.ar    1  UNL1        0.0802
     21 C          -0.4807   -0.6482   -0.0029 C.ar    1  UNL1        0.0161
     22 C           0.5683   -1.7126    0.0316 C.ar    1  UNL1       -0.0114
     23 C           0.4765   -3.0512   -0.0662 C.2     1  UNL1       -0.0719
     24 C           3.8580    0.3921    0.5108 C.ar    1  UNL1        0.0996
     25 N           4.5906   -0.1992    1.5120 N.ar    1  UNL1       -0.2527
     26 C           5.9054    0.1192    1.7181 C.ar    1  UNL1        0.0304
     27 C           6.6745    1.0263    0.9983 C.ar    1  UNL1       -0.0153
     28 C           5.9698    1.6539   -0.0456 C.ar    1  UNL1        0.1034
     29 N           6.4842    2.5645   -0.8876 N.ar    1  UNL1       -0.1907
     30 S           5.2649    2.9813   -1.9328 S.2     1  UNL1        0.1165
     31 N           4.0280    2.0418   -1.3556 N.ar    1  UNL1       -0.1886
     32 C           4.5190    1.3422   -0.3145 C.ar    1  UNL1        0.1257
     33 H           1.9029   -4.3464    0.8863 H       1  UNL1        0.0350
     34 H           2.0712   -4.2319   -0.8910 H       1  UNL1        0.0350
     35 H           3.7947   -2.5517    0.2843 H       1  UNL1        0.0581
     36 H           1.7823    2.0225    0.4181 H       1  UNL1        0.0631
     37 H           0.1463    3.6487    0.3205 H       1  UNL1        0.0813
     38 H          -2.1562    4.6029    0.1493 H       1  UNL1        0.1648
     39 H          -3.9740    2.9252   -0.1321 H       1  UNL1        0.0813
     40 H          -5.6066    1.2200    0.5112 H       1  UNL1        0.0356
     41 H          -5.4278    1.3324   -1.2819 H       1  UNL1        0.0356
     42 H          -7.5876   -0.1166   -0.6791 H       1  UNL1        0.0575
     43 H          -6.6121   -2.5408   -0.7341 H       1  UNL1        0.0621
     44 H          -3.8965   -3.5527   -0.5271 H       1  UNL1        0.0836
     45 H          -0.4247   -3.6293   -0.1925 H       1  UNL1        0.0581
     46 H           6.3575   -0.4238    2.5484 H       1  UNL1        0.0830
     47 H           7.7130    1.2291    1.2157 H       1  UNL1        0.0655
@<TRIPOS>BOND
     1     1     2    1
     2     2     3    2
     3     3     4   ar
     4     4     5   ar
     5     5     6   ar
     6     6     7   ar
     7     7     8   ar
     8     8     9   ar
     9     9    10   ar
    10    10    11   ar
    11    11    12   ar
    12    12    13   ar
    13    13    14    1
    14    14    15    1
    15    15    16    2
    16    16    17    1
    17    17    18   ar
    18    18    19   ar
    19    19    20   ar
    20    20    21   ar
    21    21    22   ar
    22    22    23    2
    23     4    24    1
    24    24    25   ar
    25    25    26   ar
    26    26    27   ar
    27    27    28   ar
    28    28    29   ar
    29    29    30   ar
    30    30    31   ar
    31    31    32   ar
    32    23     1    1
    33    32    24   ar
    34    22     3   ar
    35    32    28   ar
    36    21     6   ar
    37    11     7   ar
    38    20    12   ar
    39    17    13   ar
    40     1    33    1
    41     1    34    1
    42     2    35    1
    43     5    36    1
    44     8    37    1
    45     9    38    1
    46    10    39    1
    47    14    40    1
    48    14    41    1
    49    15    42    1
    50    16    43    1
    51    18    44    1
    52    23    45    1
    53    26    46    1
    54    27    47    1
