@<TRIPOS>MOLECULE
*****
 48 55 0 0 0
SMALL
GASTEIGER

@<TRIPOS>ATOM
      1 C          -2.6436   -3.2399    1.0236 C.3     1  UNL1        0.0000
      2 C          -3.4315   -1.9704    1.0706 C.2     1  UNL1        0.0000
      3 C          -2.6221   -0.9210    0.8513 C.ar    1  UNL1        0.0000
      4 C          -2.9585    0.4815    0.6850 C.ar    1  UNL1        0.0000
      5 C          -1.9746    1.2616    0.1748 C.ar    1  UNL1        0.0000
      6 C          -0.5831    0.7944   -0.1609 C.ar    1  UNL1        0.0000
      7 C           0.3246    1.6316   -0.8580 C.ar    1  UNL1        0.0000
      8 C          -0.1018    2.8396   -1.4798 C.ar    1  UNL1        0.0000
      9 C           0.7737    3.7217   -2.1025 C.ar    1  UNL1        0.0000
     10 C           2.1162    3.4291   -2.1023 C.ar    1  UNL1        0.0000
     11 C           2.5550    2.2328   -1.5299 C.ar    1  UNL1        0.0000
     12 C           1.6982    1.2550   -0.9561 C.ar    1  UNL1        0.0000
     13 C           2.1787   -0.0107   -0.4073 C.ar    1  UNL1        0.0000
     14 C           3.5024   -0.5948   -0.5908 C.ar    1  UNL1        0.0000
     15 SI          4.8701   -0.2424   -1.9282 Si      1  UNL1        0.0000
     16 C           5.9465   -1.5841   -1.2125 C.2     1  UNL1        0.0000
     17 C           5.3755   -2.2071   -0.1714 C.2     1  UNL1        0.0000
     18 C           4.0333   -1.7081    0.1385 C.ar    1  UNL1        0.0000
     19 C           3.2121   -2.2748    1.1200 C.ar    1  UNL1        0.0000
     20 N           3.5413   -3.2584    1.9750 N.ar    1  UNL1        0.0000
     21 S           2.2222   -3.5023    2.9399 S.2     1  UNL1        0.0000
     22 N           1.1736   -2.4111    2.2834 N.ar    1  UNL1        0.0000
     23 C           1.7937   -1.7990    1.2551 C.ar    1  UNL1        0.0000
     24 C           1.2433   -0.7626    0.3848 C.ar    1  UNL1        0.0000
     25 C          -0.1476   -0.4531    0.3510 C.ar    1  UNL1        0.0000
     26 C          -1.2479   -1.3965    0.6905 C.ar    1  UNL1        0.0000
     27 C          -1.2671   -2.7420    0.7125 C.2     1  UNL1        0.0000
     28 C          -4.2616    1.1069    1.0442 C.ar    1  UNL1        0.0000
     29 N          -4.5910    2.2580    0.4430 N.ar    1  UNL1        0.0000
     30 C          -5.7533    2.7768    0.8286 C.ar    1  UNL1        0.0000
     31 N          -6.5799    2.2624    1.7333 N.ar    1  UNL1        0.0000
     32 C          -6.1492    1.1225    2.2642 C.ar    1  UNL1        0.0000
     33 N          -5.0145    0.4981    1.9654 N.ar    1  UNL1        0.0000
     34 H          -3.0096   -3.8985    0.2306 H       1  UNL1        0.0000
     35 H          -2.6711   -3.7654    1.9825 H       1  UNL1        0.0000
     36 H          -4.5019   -1.9392    1.2023 H       1  UNL1        0.0000
     37 H          -2.1591    2.3262    0.0792 H       1  UNL1        0.0000
     38 H          -1.1524    3.1185   -1.5060 H       1  UNL1        0.0000
     39 H           0.4036    4.6379   -2.5536 H       1  UNL1        0.0000
     40 H           2.8323    4.1255   -2.5299 H       1  UNL1        0.0000
     41 H           3.6292    2.1270   -1.4848 H       1  UNL1        0.0000
     42 H           4.3957   -0.5611   -3.2973 H       1  UNL1        0.0000
     43 H           5.5220    1.0802   -1.7606 H       1  UNL1        0.0000
     44 H           6.9250   -1.7934   -1.6179 H       1  UNL1        0.0000
     45 H           5.8289   -3.0116    0.3936 H       1  UNL1        0.0000
     46 H          -0.4393   -3.4059    0.5210 H       1  UNL1        0.0000
     47 H          -6.0546    3.7084    0.3612 H       1  UNL1        0.0000
     48 H          -6.7819    0.6576    3.0127 H       1  UNL1        0.0000
@<TRIPOS>BOND
     1     1     2    1
     2     2     3    2
     3     3     4   ar
     4     4     5   ar
     5     5     6   ar
     6     6     7   ar
     7     7     8   ar
     8     8     9   ar
     9     9    10   ar
    10    10    11   ar
    11    11    12   ar
    12    12    13   ar
    13    13    14   ar
    14    14    15    1
    15    15    16    1
    16    16    17    2
    17    17    18    1
    18    18    19   ar
    19    19    20   ar
    20    20    21   ar
    21    21    22   ar
    22    22    23   ar
    23    23    24   ar
    24    24    25   ar
    25    25    26   ar
    26    26    27    2
    27     4    28    1
    28    28    29   ar
    29    29    30   ar
    30    30    31   ar
    31    31    32   ar
    32    32    33   ar
    33    27     1    1
    34    33    28   ar
    35    26     3   ar
    36    25     6   ar
    37    12     7   ar
    38    24    13   ar
    39    18    14   ar
    40    23    19   ar
    41     1    34    1
    42     1    35    1
    43     2    36    1
    44     5    37    1
    45     8    38    1
    46     9    39    1
    47    10    40    1
    48    11    41    1
    49    15    42    1
    50    15    43    1
    51    16    44    1
    52    17    45    1
    53    27    46    1
    54    30    47    1
    55    32    48    1
