@<TRIPOS>MOLECULE
*****
 50 57 0 0 0
SMALL
GASTEIGER

@<TRIPOS>ATOM
      1 C           1.0215   -2.8312    2.5395 C.3     1  UNL1        0.0000
      2 C           2.0744   -2.2086    1.6751 C.2     1  UNL1        0.0000
      3 C           1.5009   -1.3648    0.8018 C.ar    1  UNL1        0.0000
      4 C           2.1245   -0.5470   -0.2223 C.ar    1  UNL1        0.0000
      5 C           1.3183    0.2260   -0.9882 C.ar    1  UNL1        0.0000
      6 C          -0.1782    0.2818   -0.8572 C.ar    1  UNL1        0.0000
      7 C          -0.9814    1.1045   -1.7048 C.ar    1  UNL1        0.0000
      8 C          -0.4629    1.9227   -2.7434 C.ar    1  UNL1        0.0000
      9 C          -1.2767    2.7180   -3.5548 C.ar    1  UNL1        0.0000
     10 C          -2.6463    2.7266   -3.3604 C.ar    1  UNL1        0.0000
     11 C          -3.2028    1.9392   -2.3559 C.ar    1  UNL1        0.0000
     12 C          -2.3990    1.1264   -1.5231 C.ar    1  UNL1        0.0000
     13 C          -3.0090    0.3288   -0.5024 C.ar    1  UNL1        0.0000
     14 C          -4.3464    0.0788   -0.0142 C.ar    1  UNL1        0.0000
     15 C          -5.6578    0.5062   -0.3186 C.ar    1  UNL1        0.0000
     16 C          -6.7410    0.0064    0.4227 C.ar    1  UNL1        0.0000
     17 C          -6.5433   -0.9068    1.4565 C.ar    1  UNL1        0.0000
     18 C          -5.2602   -1.3482    1.7815 C.ar    1  UNL1        0.0000
     19 C          -4.2081   -0.8320    1.0257 C.ar    1  UNL1        0.0000
     20 O          -2.9071   -1.1516    1.2064 O.2     1  UNL1        0.0000
     21 C          -2.1738   -0.4584    0.2912 C.ar    1  UNL1        0.0000
     22 C          -0.7852   -0.5148    0.1541 C.ar    1  UNL1        0.0000
     23 C           0.0574   -1.3617    1.0080 C.ar    1  UNL1        0.0000
     24 C          -0.2356   -2.2049    2.0127 C.2     1  UNL1        0.0000
     25 C           3.5349   -0.4662   -0.4529 C.ar    1  UNL1        0.0000
     26 S           4.2422   -1.2256   -1.8546 S.2     1  UNL1        0.0000
     27 C           5.8446   -0.7398   -1.4403 C.ar    1  UNL1        0.0000
     28 C           5.8179   -0.0370   -0.2768 C.ar    1  UNL1        0.0000
     29 SI          7.0835    0.8112    0.8276 Si      1  UNL1        0.0000
     30 C           5.6490    1.3098    1.9897 C.2     1  UNL1        0.0000
     31 C           4.4614    0.8610    1.5269 C.2     1  UNL1        0.0000
     32 C           4.5283    0.1256    0.2965 C.ar    1  UNL1        0.0000
     33 H           1.0019   -3.9180    2.4173 H       1  UNL1        0.0000
     34 H           1.1759   -2.5803    3.5929 H       1  UNL1        0.0000
     35 H           3.1298   -2.4214    1.7552 H       1  UNL1        0.0000
     36 H           1.7782    0.8567   -1.7390 H       1  UNL1        0.0000
     37 H           0.6017    1.9614   -2.9540 H       1  UNL1        0.0000
     38 H          -0.8321    3.3272   -4.3377 H       1  UNL1        0.0000
     39 H          -3.2845    3.3425   -3.9884 H       1  UNL1        0.0000
     40 H          -4.2782    1.9756   -2.2408 H       1  UNL1        0.0000
     41 H          -5.8594    1.2145   -1.1135 H       1  UNL1        0.0000
     42 H          -7.7497    0.3383    0.1846 H       1  UNL1        0.0000
     43 H          -7.3970   -1.2809    2.0173 H       1  UNL1        0.0000
     44 H          -5.0819   -2.0576    2.5806 H       1  UNL1        0.0000
     45 H          -1.2155   -2.4277    2.4046 H       1  UNL1        0.0000
     46 H           6.6812   -1.0055   -2.0721 H       1  UNL1        0.0000
     47 H           7.7143    2.0077    0.2168 H       1  UNL1        0.0000
     48 H           8.0175   -0.1220    1.5056 H       1  UNL1        0.0000
     49 H           5.8329    1.8787    2.8866 H       1  UNL1        0.0000
     50 H           3.5210    1.0363    2.0379 H       1  UNL1        0.0000
@<TRIPOS>BOND
     1     1     2    1
     2     2     3    2
     3     3     4   ar
     4     4     5   ar
     5     5     6   ar
     6     6     7   ar
     7     7     8   ar
     8     8     9   ar
     9     9    10   ar
    10    10    11   ar
    11    11    12   ar
    12    12    13   ar
    13    13    14   ar
    14    14    15   ar
    15    15    16   ar
    16    16    17   ar
    17    17    18   ar
    18    18    19   ar
    19    19    20   ar
    20    20    21   ar
    21    21    22   ar
    22    22    23   ar
    23    23    24    2
    24     4    25    1
    25    25    26   ar
    26    26    27   ar
    27    27    28   ar
    28    28    29    1
    29    29    30    1
    30    30    31    2
    31    31    32    1
    32    24     1    1
    33    32    25   ar
    34    23     3   ar
    35    32    28   ar
    36    22     6   ar
    37    12     7   ar
    38    21    13   ar
    39    19    14   ar
    40     1    33    1
    41     1    34    1
    42     2    35    1
    43     5    36    1
    44     8    37    1
    45     9    38    1
    46    10    39    1
    47    11    40    1
    48    15    41    1
    49    16    42    1
    50    17    43    1
    51    18    44    1
    52    24    45    1
    53    27    46    1
    54    29    47    1
    55    29    48    1
    56    30    49    1
    57    31    50    1
