@<TRIPOS>MOLECULE
*****
 49 56 0 0 0
SMALL
GASTEIGER

@<TRIPOS>ATOM
      1 C          -2.1990   -1.9766   -3.2448 C.3     1  UNL1        0.0000
      2 C          -3.2152   -1.3750   -2.3272 C.2     1  UNL1        0.0000
      3 C          -2.6005   -0.7961   -1.2822 C.ar    1  UNL1        0.0000
      4 C          -3.2117   -0.0831   -0.1672 C.ar    1  UNL1        0.0000
      5 C          -2.3724    0.4724    0.7347 C.ar    1  UNL1        0.0000
      6 C          -0.9136    0.3308    0.6293 C.ar    1  UNL1        0.0000
      7 C          -0.0328    0.8117    1.5879 C.ar    1  UNL1        0.0000
      8 C          -0.3347    1.4159    2.7819 C.ar    1  UNL1        0.0000
      9 O           0.8087    1.6125    3.4960 O.2     1  UNL1        0.0000
     10 C           1.8419    1.1363    2.7428 C.ar    1  UNL1        0.0000
     11 C           1.3879    0.7092    1.5184 C.ar    1  UNL1        0.0000
     12 C           2.1269    0.1126    0.4562 C.ar    1  UNL1        0.0000
     13 C           1.2314   -0.5321   -0.4681 C.ar    1  UNL1        0.0000
     14 N           1.7696   -1.3298   -1.4068 N.ar    1  UNL1        0.0000
     15 C           3.1074   -1.5379   -1.4748 C.ar    1  UNL1        0.0000
     16 C           4.0675   -0.9072   -0.7052 C.ar    1  UNL1        0.0000
     17 C           5.4596   -1.2129   -0.9249 C.ar    1  UNL1        0.0000
     18 C           6.5328   -0.5796   -0.2754 C.ar    1  UNL1        0.0000
     19 C           6.0779    0.4408    0.5466 C.ar    1  UNL1        0.0000
     20 C           6.9556    1.2818    1.1860 C.ar    1  UNL1        0.0000
     21 S           6.1227    2.5433    1.9921 S.2     1  UNL1        0.0000
     22 C           4.5945    1.9569    1.4656 C.ar    1  UNL1        0.0000
     23 C           4.6876    0.7580    0.7954 C.ar    1  UNL1        0.0000
     24 C           3.5725    0.0311    0.2460 C.ar    1  UNL1        0.0000
     25 C          -0.2146   -0.3774   -0.4078 C.ar    1  UNL1        0.0000
     26 C          -1.1468   -0.9581   -1.4219 C.ar    1  UNL1        0.0000
     27 C          -0.9120   -1.6376   -2.5589 C.2     1  UNL1        0.0000
     28 C          -4.6354    0.1001    0.0117 C.2     1  UNL1        0.0000
     29 C          -5.3668    1.2046   -0.2426 C.2     1  UNL1        0.0000
     30 C          -6.7880    1.0889    0.0461 C.2     1  UNL1        0.0000
     31 C          -7.1816   -0.1039    0.5290 C.2     1  UNL1        0.0000
     32 SI         -5.7275   -1.2953    0.6849 Si      1  UNL1        0.0000
     33 H          -2.3307   -3.0593   -3.3265 H       1  UNL1        0.0000
     34 H          -2.2472   -1.5227   -4.2389 H       1  UNL1        0.0000
     35 H          -4.2784   -1.4035   -2.5095 H       1  UNL1        0.0000
     36 H          -2.7703    1.0349    1.5730 H       1  UNL1        0.0000
     37 H          -1.2450    1.7155    3.2819 H       1  UNL1        0.0000
     38 H           2.7989    1.1560    3.2433 H       1  UNL1        0.0000
     39 H           3.3892   -2.2559   -2.2431 H       1  UNL1        0.0000
     40 H           5.7137   -1.9821   -1.6579 H       1  UNL1        0.0000
     41 H           7.5684   -0.8228   -0.4715 H       1  UNL1        0.0000
     42 H           8.0369    1.2574    1.1948 H       1  UNL1        0.0000
     43 H           3.7267    2.5624    1.6768 H       1  UNL1        0.0000
     44 H           0.0504   -1.9098   -2.9621 H       1  UNL1        0.0000
     45 H          -4.9547    2.1258   -0.6365 H       1  UNL1        0.0000
     46 H          -7.4593    1.9214   -0.1260 H       1  UNL1        0.0000
     47 H          -8.1819   -0.3973    0.8052 H       1  UNL1        0.0000
     48 H          -5.8650   -2.4406   -0.2504 H       1  UNL1        0.0000
     49 H          -5.4432   -1.6242    2.1048 H       1  UNL1        0.0000
@<TRIPOS>BOND
     1     1     2    1
     2     2     3    2
     3     3     4   ar
     4     4     5   ar
     5     5     6   ar
     6     6     7   ar
     7     7     8   ar
     8     8     9   ar
     9     9    10   ar
    10    10    11   ar
    11    11    12   ar
    12    12    13   ar
    13    13    14   ar
    14    14    15   ar
    15    15    16   ar
    16    16    17   ar
    17    17    18   ar
    18    18    19   ar
    19    19    20   ar
    20    20    21   ar
    21    21    22   ar
    22    22    23   ar
    23    23    24   ar
    24    13    25   ar
    25    25    26   ar
    26    26    27    2
    27     4    28    1
    28    28    29    2
    29    29    30    1
    30    30    31    2
    31    31    32    1
    32    27     1    1
    33    32    28    1
    34    26     3   ar
    35    25     6   ar
    36    11     7   ar
    37    24    12   ar
    38    24    16   ar
    39    23    19   ar
    40     1    33    1
    41     1    34    1
    42     2    35    1
    43     5    36    1
    44     8    37    1
    45    10    38    1
    46    15    39    1
    47    17    40    1
    48    18    41    1
    49    20    42    1
    50    22    43    1
    51    27    44    1
    52    29    45    1
    53    30    46    1
    54    31    47    1
    55    32    48    1
    56    32    49    1
