@<TRIPOS>MOLECULE
*****
 48 55 0 0 0
SMALL
GASTEIGER

@<TRIPOS>ATOM
      1 C           1.6211    3.3179   -1.0139 C.3     1  UNL1       -0.0148
      2 C           2.8438    2.4936   -0.7567 C.2     1  UNL1       -0.0719
      3 C           2.4848    1.2423   -0.4235 C.ar    1  UNL1       -0.0129
      4 C           3.3405    0.0793   -0.2467 C.ar    1  UNL1       -0.0018
      5 C           2.7243   -1.1226   -0.1790 C.ar    1  UNL1       -0.0446
      6 C           1.2526   -1.2558   -0.2231 C.ar    1  UNL1       -0.0079
      7 C           0.5930   -2.4840   -0.3527 C.ar    1  UNL1       -0.0025
      8 C           1.2330   -3.6904   -0.5333 C.ar    1  UNL1       -0.0160
      9 S           0.1289   -4.9929   -0.6414 S.2     1  UNL1       -0.1038
     10 C          -1.2146   -3.9443   -0.4489 C.ar    1  UNL1       -0.0159
     11 C          -0.8497   -2.6176   -0.3674 C.ar    1  UNL1       -0.0006
     12 C          -1.7417   -1.5304   -0.1807 C.ar    1  UNL1        0.0154
     13 C          -3.1465   -1.5896   -0.3070 C.ar    1  UNL1        0.0555
     14 N          -3.9815   -2.5504   -0.8446 N.ar    1  UNL1       -0.3601
     15 C          -5.2911   -2.1725   -0.7567 C.ar    1  UNL1        0.0028
     16 C          -5.3193   -0.9284   -0.1809 C.ar    1  UNL1       -0.0361
     17 C          -3.9706   -0.5302    0.0786 C.ar    1  UNL1        0.0080
     18 C          -3.3738    0.6150    0.6637 C.ar    1  UNL1       -0.0081
     19 C          -4.2189    1.6200    1.1904 C.ar    1  UNL1       -0.0534
     20 C          -3.6892    2.7174    1.8594 C.ar    1  UNL1       -0.0611
     21 C          -2.3184    2.8086    2.0308 C.ar    1  UNL1       -0.0611
     22 C          -1.4800    1.8249    1.4931 C.ar    1  UNL1       -0.0534
     23 C          -1.9587    0.7250    0.7354 C.ar    1  UNL1       -0.0089
     24 C          -1.1060   -0.2822    0.1490 C.ar    1  UNL1        0.0007
     25 C           0.3432   -0.1481   -0.0854 C.ar    1  UNL1       -0.0015
     26 C           1.0237    1.1514   -0.3709 C.ar    1  UNL1       -0.0129
     27 C           0.5195    2.3282   -0.7860 C.2     1  UNL1       -0.0719
     28 C           4.7663    0.1247   -0.1330 C.ar    1  UNL1        0.0394
     29 C           5.5552    0.8496    0.7479 C.ar    1  UNL1        0.0425
     30 N           6.9237    0.7176    0.6069 N.ar    1  UNL1       -0.2551
     31 C           7.1724   -0.1015   -0.3889 C.ar    1  UNL1        0.0652
     32 S           5.8101   -0.7481   -1.1999 S.2     1  UNL1       -0.0754
     33 H           1.5514    4.1585   -0.3177 H       1  UNL1        0.0350
     34 H           1.6082    3.6878   -2.0433 H       1  UNL1        0.0350
     35 H           3.8505    2.8523   -0.9104 H       1  UNL1        0.0581
     36 H           3.3040   -2.0266   -0.0293 H       1  UNL1        0.0630
     37 H           2.2891   -3.9061   -0.6058 H       1  UNL1        0.0700
     38 H          -2.1845   -4.4065   -0.3743 H       1  UNL1        0.0700
     39 H          -3.6708   -3.3898   -1.3089 H       1  UNL1        0.1654
     40 H          -6.0837   -2.8117   -1.1220 H       1  UNL1        0.0807
     41 H          -6.2153   -0.3562    0.0195 H       1  UNL1        0.0639
     42 H          -5.2997    1.5416    1.1065 H       1  UNL1        0.0624
     43 H          -4.3469    3.4768    2.2726 H       1  UNL1        0.0618
     44 H          -1.8910    3.6358    2.5915 H       1  UNL1        0.0618
     45 H          -0.4181    1.9178    1.7113 H       1  UNL1        0.0624
     46 H          -0.5207    2.5573   -0.9630 H       1  UNL1        0.0581
     47 H           5.1704    1.4988    1.5260 H       1  UNL1        0.0841
     48 H           8.1809   -0.3563   -0.6876 H       1  UNL1        0.0907
@<TRIPOS>BOND
     1     1     2    1
     2     2     3    2
     3     3     4   ar
     4     4     5   ar
     5     5     6   ar
     6     6     7   ar
     7     7     8   ar
     8     8     9   ar
     9     9    10   ar
    10    10    11   ar
    11    11    12   ar
    12    12    13   ar
    13    13    14   ar
    14    14    15   ar
    15    15    16   ar
    16    16    17   ar
    17    17    18   ar
    18    18    19   ar
    19    19    20   ar
    20    20    21   ar
    21    21    22   ar
    22    22    23   ar
    23    23    24   ar
    24    24    25   ar
    25    25    26   ar
    26    26    27    2
    27     4    28    1
    28    28    29   ar
    29    29    30   ar
    30    30    31   ar
    31    31    32   ar
    32    27     1    1
    33    32    28   ar
    34    26     3   ar
    35    25     6   ar
    36    11     7   ar
    37    24    12   ar
    38    17    13   ar
    39    23    18   ar
    40     1    33    1
    41     1    34    1
    42     2    35    1
    43     5    36    1
    44     8    37    1
    45    10    38    1
    46    14    39    1
    47    15    40    1
    48    16    41    1
    49    19    42    1
    50    20    43    1
    51    21    44    1
    52    22    45    1
    53    27    46    1
    54    29    47    1
    55    31    48    1
