@<TRIPOS>MOLECULE
*****
 45 52 0 0 0
SMALL
GASTEIGER

@<TRIPOS>ATOM
      1 C           2.1979   -3.0536   -1.5183 C.3     1  UNL1        0.0000
      2 C           3.1619   -2.0388   -0.9945 C.2     1  UNL1        0.0000
      3 C           2.4863   -0.9866   -0.5037 C.ar    1  UNL1        0.0000
      4 C           3.0120    0.1423    0.2437 C.ar    1  UNL1        0.0000
      5 C           2.1096    0.9282    0.8719 C.ar    1  UNL1        0.0000
      6 C           0.6510    0.7200    0.7352 C.ar    1  UNL1        0.0000
      7 C          -0.2976    1.4367    1.4760 C.ar    1  UNL1        0.0000
      8 C           0.0438    2.3025    2.4933 C.ar    1  UNL1        0.0000
      9 S          -1.3230    3.0173    3.2211 S.2     1  UNL1        0.0000
     10 C          -2.3843    2.1716    2.1744 C.ar    1  UNL1        0.0000
     11 C          -1.7394    1.3295    1.2945 C.ar    1  UNL1        0.0000
     12 C          -2.3881    0.5271    0.2833 C.ar    1  UNL1        0.0000
     13 C          -3.8046    0.3681    0.0196 C.ar    1  UNL1        0.0000
     14 SI         -5.3596    0.9385    0.9806 Si      1  UNL1        0.0000
     15 C          -6.4636    0.1527   -0.2947 C.2     1  UNL1        0.0000
     16 C          -5.7709   -0.4406   -1.2790 C.2     1  UNL1        0.0000
     17 C          -4.3179   -0.3353   -1.1069 C.ar    1  UNL1        0.0000
     18 C          -3.3941   -0.8540   -2.0275 C.ar    1  UNL1        0.0000
     19 N          -3.6914   -1.4670   -3.1868 N.ar    1  UNL1        0.0000
     20 S          -2.2555   -1.7873   -3.9343 S.2     1  UNL1        0.0000
     21 N          -1.2029   -1.2031   -2.8088 N.ar    1  UNL1        0.0000
     22 C          -1.9099   -0.7500   -1.7553 C.ar    1  UNL1        0.0000
     23 C          -1.3732   -0.1578   -0.5328 C.ar    1  UNL1        0.0000
     24 C           0.0603   -0.1818   -0.2054 C.ar    1  UNL1        0.0000
     25 C           1.0477   -1.1814   -0.7128 C.ar    1  UNL1        0.0000
     26 C           0.8752   -2.4161   -1.2190 C.2     1  UNL1        0.0000
     27 C           4.3970    0.4648    0.4122 C.ar    1  UNL1        0.0000
     28 C           5.1603    0.4674    1.5689 C.ar    1  UNL1        0.0000
     29 C           6.5124    0.8562    1.3427 C.ar    1  UNL1        0.0000
     30 C           6.7479    1.1450    0.0187 C.ar    1  UNL1        0.0000
     31 S           5.3483    0.9478   -0.9412 S.2     1  UNL1        0.0000
     32 H           2.3287   -3.2154   -2.5920 H       1  UNL1        0.0000
     33 H           2.3028   -4.0035   -0.9859 H       1  UNL1        0.0000
     34 H           4.2302   -2.1872   -0.9526 H       1  UNL1        0.0000
     35 H           2.4513    1.7841    1.4431 H       1  UNL1        0.0000
     36 H           1.0188    2.5671    2.8759 H       1  UNL1        0.0000
     37 H          -3.4262    2.3952    2.3054 H       1  UNL1        0.0000
     38 H          -5.4852    2.4166    0.9989 H       1  UNL1        0.0000
     39 H          -5.4554    0.2823    2.3069 H       1  UNL1        0.0000
     40 H          -7.5392    0.1992   -0.2147 H       1  UNL1        0.0000
     41 H          -6.2108   -0.9534   -2.1253 H       1  UNL1        0.0000
     42 H          -0.0606   -2.9230   -1.3896 H       1  UNL1        0.0000
     43 H           4.7618    0.1927    2.5384 H       1  UNL1        0.0000
     44 H           7.2721    0.9193    2.1119 H       1  UNL1        0.0000
     45 H           7.6760    1.4635   -0.4356 H       1  UNL1        0.0000
@<TRIPOS>BOND
     1     1     2    1
     2     2     3    2
     3     3     4   ar
     4     4     5   ar
     5     5     6   ar
     6     6     7   ar
     7     7     8   ar
     8     8     9   ar
     9     9    10   ar
    10    10    11   ar
    11    11    12   ar
    12    12    13   ar
    13    13    14    1
    14    14    15    1
    15    15    16    2
    16    16    17    1
    17    17    18   ar
    18    18    19   ar
    19    19    20   ar
    20    20    21   ar
    21    21    22   ar
    22    22    23   ar
    23    23    24   ar
    24    24    25   ar
    25    25    26    2
    26     4    27    1
    27    27    28   ar
    28    28    29   ar
    29    29    30   ar
    30    30    31   ar
    31    26     1    1
    32    31    27   ar
    33    25     3   ar
    34    24     6   ar
    35    11     7   ar
    36    23    12   ar
    37    17    13   ar
    38    22    18   ar
    39     1    32    1
    40     1    33    1
    41     2    34    1
    42     5    35    1
    43     8    36    1
    44    10    37    1
    45    14    38    1
    46    14    39    1
    47    15    40    1
    48    16    41    1
    49    26    42    1
    50    28    43    1
    51    29    44    1
    52    30    45    1
