@<TRIPOS>MOLECULE
*****
 49 56 0 0 0
SMALL
GASTEIGER

@<TRIPOS>ATOM
      1 SI         -0.9501    4.1048   -1.3713 Si      1  UNL1        0.0000
      2 C          -1.9260    2.7137   -0.6406 C.2     1  UNL1        0.0000
      3 C          -1.1345    1.6813   -0.2818 C.ar    1  UNL1        0.0000
      4 C          -1.6337    0.4178    0.2301 C.ar    1  UNL1        0.0000
      5 C          -0.7577   -0.5856    0.4323 C.ar    1  UNL1        0.0000
      6 C           0.7156   -0.4844    0.1922 C.ar    1  UNL1        0.0000
      7 C           1.5484   -1.6219    0.3553 C.ar    1  UNL1        0.0000
      8 C           1.0533   -2.9433    0.5457 C.ar    1  UNL1        0.0000
      9 C           1.8877   -4.0501    0.7017 C.ar    1  UNL1        0.0000
     10 C           3.2559   -3.8774    0.6675 C.ar    1  UNL1        0.0000
     11 C           3.7806   -2.6008    0.4733 C.ar    1  UNL1        0.0000
     12 C           2.9573   -1.4559    0.3111 C.ar    1  UNL1        0.0000
     13 C           3.5439   -0.1474    0.1303 C.ar    1  UNL1        0.0000
     14 C           4.9364    0.2884    0.0979 C.ar    1  UNL1        0.0000
     15 S           6.5153   -0.4857    0.2202 S.2     1  UNL1        0.0000
     16 C           7.3075    1.0146    0.0421 C.ar    1  UNL1        0.0000
     17 C           6.4469    2.0739   -0.0934 C.ar    1  UNL1        0.0000
     18 C           5.0889    1.6345   -0.0558 C.ar    1  UNL1        0.0000
     19 S           3.5782    2.4463   -0.1525 S.2     1  UNL1        0.0000
     20 C           2.6872    0.9539   -0.0751 C.ar    1  UNL1        0.0000
     21 C           1.2708    0.7889   -0.1355 C.ar    1  UNL1        0.0000
     22 C           0.3212    1.8894   -0.5028 C.ar    1  UNL1        0.0000
     23 C           0.5825    3.0646   -1.1181 C.2     1  UNL1        0.0000
     24 C          -3.0317    0.1582    0.5730 C.ar    1  UNL1        0.0000
     25 C          -3.6464    0.4995    1.8028 C.ar    1  UNL1        0.0000
     26 C          -5.0280    0.2340    2.1100 C.ar    1  UNL1        0.0000
     27 C          -5.9353   -0.3948    1.2240 C.ar    1  UNL1        0.0000
     28 C          -5.3085   -0.7143    0.0261 C.ar    1  UNL1        0.0000
     29 C          -5.8927   -1.3241   -1.0534 C.ar    1  UNL1        0.0000
     30 N          -4.9169   -1.4431   -2.0219 N.ar    1  UNL1        0.0000
     31 C          -3.7244   -0.9181   -1.5687 C.ar    1  UNL1        0.0000
     32 C          -3.9410   -0.4586   -0.2924 C.ar    1  UNL1        0.0000
     33 H          -1.2451    4.3283   -2.8076 H       1  UNL1        0.0000
     34 H          -0.9512    5.3223   -0.5243 H       1  UNL1        0.0000
     35 H          -3.0028    2.7564   -0.5837 H       1  UNL1        0.0000
     36 H          -1.1380   -1.5093    0.8525 H       1  UNL1        0.0000
     37 H          -0.0132   -3.1509    0.5507 H       1  UNL1        0.0000
     38 H           1.4615   -5.0397    0.8417 H       1  UNL1        0.0000
     39 H           3.9210   -4.7284    0.7860 H       1  UNL1        0.0000
     40 H           4.8603   -2.5328    0.4508 H       1  UNL1        0.0000
     41 H           8.3888    1.0473    0.0509 H       1  UNL1        0.0000
     42 H           6.7603    3.1035   -0.2104 H       1  UNL1        0.0000
     43 H           1.5136    3.4555   -1.4832 H       1  UNL1        0.0000
     44 H          -3.0422    0.9936    2.5644 H       1  UNL1        0.0000
     45 H          -5.3959    0.5401    3.0900 H       1  UNL1        0.0000
     46 H          -6.9703   -0.5871    1.4661 H       1  UNL1        0.0000
     47 H          -6.8969   -1.6820   -1.2344 H       1  UNL1        0.0000
     48 H          -5.0557   -1.8538   -2.9359 H       1  UNL1        0.0000
     49 H          -2.8452   -0.9211   -2.1991 H       1  UNL1        0.0000
@<TRIPOS>BOND
     1     1     2    1
     2     2     3    2
     3     3     4   ar
     4     4     5   ar
     5     5     6   ar
     6     6     7   ar
     7     7     8   ar
     8     8     9   ar
     9     9    10   ar
    10    10    11   ar
    11    11    12   ar
    12    12    13   ar
    13    13    14   ar
    14    14    15   ar
    15    15    16   ar
    16    16    17   ar
    17    17    18   ar
    18    18    19   ar
    19    19    20   ar
    20    20    21   ar
    21    21    22   ar
    22    22    23    2
    23     4    24    1
    24    24    25   ar
    25    25    26   ar
    26    26    27   ar
    27    27    28   ar
    28    28    29   ar
    29    29    30   ar
    30    30    31   ar
    31    31    32   ar
    32    23     1    1
    33    32    24   ar
    34    22     3   ar
    35    32    28   ar
    36    21     6   ar
    37    12     7   ar
    38    20    13   ar
    39    18    14   ar
    40     1    33    1
    41     1    34    1
    42     2    35    1
    43     5    36    1
    44     8    37    1
    45     9    38    1
    46    10    39    1
    47    11    40    1
    48    16    41    1
    49    17    42    1
    50    23    43    1
    51    25    44    1
    52    26    45    1
    53    27    46    1
    54    29    47    1
    55    30    48    1
    56    31    49    1
