@<TRIPOS>MOLECULE
*****
 48 55 0 0 0
SMALL
GASTEIGER

@<TRIPOS>ATOM
      1 C           1.5213    2.1033    2.8130 C.3     1  UNL1       -0.0148
      2 C           2.5662    1.2595    2.1579 C.2     1  UNL1       -0.0719
      3 C           1.9986    0.5054    1.2033 C.ar    1  UNL1       -0.0135
      4 C           2.6583   -0.3283    0.2198 C.ar    1  UNL1       -0.0099
      5 C           1.9075   -0.8011   -0.7970 C.ar    1  UNL1       -0.0451
      6 C           0.4517   -0.5516   -0.8731 C.ar    1  UNL1       -0.0078
      7 C          -0.3289   -0.9177   -1.9778 C.ar    1  UNL1       -0.0025
      8 C           0.2039   -1.4200   -3.1461 C.ar    1  UNL1       -0.0160
      9 S          -0.9941   -1.7434   -4.3193 S.2     1  UNL1       -0.1038
     10 C          -2.2384   -1.2124   -3.2700 C.ar    1  UNL1       -0.0159
     11 C          -1.7754   -0.7809   -2.0432 C.ar    1  UNL1       -0.0005
     12 C          -2.6151   -0.3241   -0.9656 C.ar    1  UNL1        0.0191
     13 C          -4.0650   -0.2255   -1.0320 C.ar    1  UNL1        0.0814
     14 N          -4.7587   -0.4304   -2.1761 N.ar    1  UNL1       -0.2543
     15 C          -6.1095   -0.3201   -2.2083 C.ar    1  UNL1        0.0283
     16 C          -6.8796   -0.0043   -1.1142 C.ar    1  UNL1       -0.0429
     17 C          -6.2169    0.2067    0.0791 C.ar    1  UNL1       -0.0490
     18 C          -4.8084    0.0993    0.1210 C.ar    1  UNL1        0.0292
     19 C          -4.0943    0.2735    1.3397 C.ar    1  UNL1        0.1096
     20 N          -4.6571    0.5080    2.5410 N.ar    1  UNL1       -0.1901
     21 S          -3.4374    0.5266    3.6500 S.2     1  UNL1        0.1165
     22 N          -2.1485    0.2776    2.6572 N.ar    1  UNL1       -0.1901
     23 C          -2.5910    0.2039    1.3883 C.ar    1  UNL1        0.1089
     24 C          -1.7874    0.0020    0.2020 C.ar    1  UNL1        0.0212
     25 C          -0.3155    0.0329    0.1865 C.ar    1  UNL1        0.0001
     26 C           0.5485    0.7240    1.1906 C.ar    1  UNL1       -0.0128
     27 C           0.2836    1.7147    2.0614 C.2     1  UNL1       -0.0719
     28 C           4.0933   -0.6621    0.2369 C.ar    1  UNL1       -0.0173
     29 C           4.9899    0.0036   -0.6089 C.ar    1  UNL1       -0.0540
     30 C           6.3492   -0.3140   -0.5832 C.ar    1  UNL1       -0.0612
     31 C           6.8199   -1.2957    0.2882 C.ar    1  UNL1       -0.0617
     32 C           5.9341   -1.9597    1.1361 C.ar    1  UNL1       -0.0612
     33 C           4.5745   -1.6436    1.1122 C.ar    1  UNL1       -0.0540
     34 H           1.4289    1.8732    3.8783 H       1  UNL1        0.0350
     35 H           1.7395    3.1674    2.6825 H       1  UNL1        0.0350
     36 H           3.6218    1.3247    2.3743 H       1  UNL1        0.0581
     37 H           2.3654   -1.4281   -1.5537 H       1  UNL1        0.0630
     38 H           1.2341   -1.6134   -3.4068 H       1  UNL1        0.0700
     39 H          -3.2462   -1.2673   -3.6507 H       1  UNL1        0.0700
     40 H          -6.5623   -0.5024   -3.1792 H       1  UNL1        0.0830
     41 H          -7.9580    0.0702   -1.1862 H       1  UNL1        0.0633
     42 H          -6.7834    0.4499    0.9753 H       1  UNL1        0.0625
     43 H          -0.6627    2.2046    2.2212 H       1  UNL1        0.0581
     44 H           4.6329    0.7755   -1.2868 H       1  UNL1        0.0624
     45 H           7.0403    0.2061   -1.2413 H       1  UNL1        0.0618
     46 H           7.8785   -1.5420    0.3081 H       1  UNL1        0.0618
     47 H           6.3011   -2.7231    1.8170 H       1  UNL1        0.0618
     48 H           3.8908   -2.1647    1.7786 H       1  UNL1        0.0624
@<TRIPOS>BOND
     1     1     2    1
     2     2     3    2
     3     3     4   ar
     4     4     5   ar
     5     5     6   ar
     6     6     7   ar
     7     7     8   ar
     8     8     9   ar
     9     9    10   ar
    10    10    11   ar
    11    11    12   ar
    12    12    13   ar
    13    13    14   ar
    14    14    15   ar
    15    15    16   ar
    16    16    17   ar
    17    17    18   ar
    18    18    19   ar
    19    19    20   ar
    20    20    21   ar
    21    21    22   ar
    22    22    23   ar
    23    23    24   ar
    24    24    25   ar
    25    25    26   ar
    26    26    27    2
    27     4    28    1
    28    28    29   ar
    29    29    30   ar
    30    30    31   ar
    31    31    32   ar
    32    32    33   ar
    33    27     1    1
    34    33    28   ar
    35    26     3   ar
    36    25     6   ar
    37    11     7   ar
    38    24    12   ar
    39    18    13   ar
    40    23    19   ar
    41     1    34    1
    42     1    35    1
    43     2    36    1
    44     5    37    1
    45     8    38    1
    46    10    39    1
    47    15    40    1
    48    16    41    1
    49    17    42    1
    50    27    43    1
    51    29    44    1
    52    30    45    1
    53    31    46    1
    54    32    47    1
    55    33    48    1
