@<TRIPOS>MOLECULE
*****
 45 52 0 0 0
SMALL
GASTEIGER

@<TRIPOS>ATOM
      1 C           0.4498    0.0702   -3.7881 C.3     1  UNL1       -0.0148
      2 C           1.5135   -0.2688   -2.7944 C.2     1  UNL1       -0.0719
      3 C           0.9782   -0.3514   -1.5653 C.ar    1  UNL1       -0.0129
      4 C           1.6510   -0.6530   -0.3084 C.ar    1  UNL1       -0.0030
      5 C           0.9107   -0.6563    0.8241 C.ar    1  UNL1       -0.0445
      6 C          -0.5418   -0.3810    0.8174 C.ar    1  UNL1       -0.0065
      7 C          -1.3268   -0.3860    1.9950 C.ar    1  UNL1       -0.0023
      8 C          -0.8617   -0.6387    3.2700 C.ar    1  UNL1       -0.0160
      9 S          -2.1118   -0.5571    4.4664 S.2     1  UNL1       -0.1038
     10 C          -3.3156   -0.1811    3.2962 C.ar    1  UNL1       -0.0158
     11 C          -2.7228   -0.1343    2.0704 C.ar    1  UNL1        0.0024
     12 C          -3.3433    0.1392    0.8350 C.ar    1  UNL1        0.0514
     13 C          -4.6764    0.4130    0.6237 C.ar    1  UNL1        0.1605
     14 O          -5.8491    0.5460    1.2913 O.2     1  UNL1       -0.4607
     15 C          -6.7606    0.8366    0.3166 C.ar    1  UNL1        0.0946
     16 C          -6.2081    0.8929   -0.9451 C.ar    1  UNL1        0.0002
     17 C          -4.8475    0.6114   -0.7036 C.ar    1  UNL1        0.0861
     18 N          -3.6197    0.4613   -1.3223 N.ar    1  UNL1       -0.3511
     19 C          -2.6535    0.1643   -0.3654 C.ar    1  UNL1        0.0595
     20 C          -1.2581   -0.0881   -0.4032 C.ar    1  UNL1        0.0142
     21 C          -0.4601   -0.0691   -1.6419 C.ar    1  UNL1       -0.0115
     22 C          -0.7752    0.1760   -2.9257 C.2     1  UNL1       -0.0719
     23 C           3.0457   -0.9288   -0.1676 C.ar    1  UNL1        0.0239
     24 S           3.7027   -2.4676   -0.6504 S.2     1  UNL1       -0.0958
     25 C           5.3124   -2.0415   -0.1890 C.ar    1  UNL1       -0.0163
     26 C           5.3183   -0.7758    0.3087 C.ar    1  UNL1       -0.0142
     27 C           6.2929    0.1086    0.8322 C.2     1  UNL1       -0.0574
     28 C           5.6958    1.2724    1.1776 C.2     1  UNL1       -0.0791
     29 C           4.1906    1.2350    0.8882 C.3     1  UNL1       -0.0075
     30 C           4.0563   -0.1408    0.3278 C.ar    1  UNL1       -0.0217
     31 H           0.6628    1.0205   -4.2864 H       1  UNL1        0.0350
     32 H           0.3385   -0.7213   -4.5349 H       1  UNL1        0.0350
     33 H           2.5519   -0.4212   -3.0478 H       1  UNL1        0.0581
     34 H           1.3822   -0.8773    1.7751 H       1  UNL1        0.0630
     35 H           0.1382   -0.8717    3.6050 H       1  UNL1        0.0700
     36 H          -4.3479   -0.0248    3.5785 H       1  UNL1        0.0700
     37 H          -7.7702    0.9772    0.6797 H       1  UNL1        0.1030
     38 H          -6.7148    1.1027   -1.8748 H       1  UNL1        0.0670
     39 H          -3.4924    0.5579   -2.3188 H       1  UNL1        0.1660
     40 H          -1.7361    0.4216   -3.3381 H       1  UNL1        0.0581
     41 H           6.1286   -2.7385   -0.3133 H       1  UNL1        0.0699
     42 H           7.3443   -0.1197    0.9348 H       1  UNL1        0.0621
     43 H           6.1979    2.1284    1.6033 H       1  UNL1        0.0575
     44 H           3.9160    2.0011    0.1578 H       1  UNL1        0.0356
     45 H           3.6150    1.3580    1.8098 H       1  UNL1        0.0356
@<TRIPOS>BOND
     1     1     2    1
     2     2     3    2
     3     3     4   ar
     4     4     5   ar
     5     5     6   ar
     6     6     7   ar
     7     7     8   ar
     8     8     9   ar
     9     9    10   ar
    10    10    11   ar
    11    11    12   ar
    12    12    13   ar
    13    13    14   ar
    14    14    15   ar
    15    15    16   ar
    16    16    17   ar
    17    17    18   ar
    18    18    19   ar
    19    19    20   ar
    20    20    21   ar
    21    21    22    2
    22     4    23    1
    23    23    24   ar
    24    24    25   ar
    25    25    26   ar
    26    26    27    1
    27    27    28    2
    28    28    29    1
    29    29    30    1
    30    22     1    1
    31    30    23   ar
    32    21     3   ar
    33    30    26   ar
    34    20     6   ar
    35    11     7   ar
    36    19    12   ar
    37    17    13   ar
    38     1    31    1
    39     1    32    1
    40     2    33    1
    41     5    34    1
    42     8    35    1
    43    10    36    1
    44    15    37    1
    45    16    38    1
    46    18    39    1
    47    22    40    1
    48    25    41    1
    49    27    42    1
    50    28    43    1
    51    29    44    1
    52    29    45    1
