@<TRIPOS>MOLECULE
*****
 44 50 0 0 0
SMALL
GASTEIGER

@<TRIPOS>ATOM
      1 C           1.0664    3.3009   -0.6672 C.3     1  UNL1       -0.0148
      2 C           2.0968    2.2161   -0.6849 C.2     1  UNL1       -0.0719
      3 C           1.5217    1.0392   -0.3864 C.ar    1  UNL1       -0.0120
      4 C           2.1531   -0.2460   -0.1350 C.ar    1  UNL1        0.0084
      5 C           1.3680   -1.2377    0.3424 C.ar    1  UNL1       -0.0436
      6 C          -0.0830   -1.0606    0.5509 C.ar    1  UNL1       -0.0078
      7 C          -0.8886   -2.0112    1.1993 C.ar    1  UNL1       -0.0025
      8 C          -0.4051   -3.1543    1.7981 C.ar    1  UNL1       -0.0160
      9 S          -1.6462   -4.0736    2.5390 S.2     1  UNL1       -0.1038
     10 C          -2.8480   -2.9491    2.0611 C.ar    1  UNL1       -0.0160
     11 C          -2.3249   -1.8876    1.3534 C.ar    1  UNL1       -0.0026
     12 C          -3.1142   -0.8355    0.8026 C.ar    1  UNL1       -0.0084
     13 C          -4.5615   -0.7626    0.9461 C.ar    1  UNL1       -0.0528
     14 C          -5.3710    0.1988    0.3238 C.ar    1  UNL1       -0.0529
     15 C          -4.6232    1.0142   -0.5130 C.ar    1  UNL1       -0.0103
     16 C          -5.2389    1.9348   -1.3266 C.ar    1  UNL1       -0.0166
     17 S          -4.1123    2.6827   -2.3769 S.2     1  UNL1       -0.1039
     18 C          -2.8120    1.7590   -1.7393 C.ar    1  UNL1       -0.0160
     19 C          -3.1824    0.9832   -0.6614 C.ar    1  UNL1       -0.0026
     20 C          -2.2892    0.1189    0.0644 C.ar    1  UNL1       -0.0008
     21 C          -0.8166    0.0819    0.0877 C.ar    1  UNL1       -0.0015
     22 C           0.0722    1.2283   -0.2499 C.ar    1  UNL1       -0.0128
     23 C          -0.1800    2.5479   -0.3154 C.2     1  UNL1       -0.0719
     24 C           3.5909   -0.5436   -0.3020 C.ar    1  UNL1        0.0715
     25 C           4.5567    0.1567    0.4173 C.ar    1  UNL1       -0.0357
     26 C           5.8977   -0.1761    0.2433 C.ar    1  UNL1       -0.0583
     27 C           6.2357   -1.1991   -0.6338 C.ar    1  UNL1       -0.0436
     28 C           5.2134   -1.8546   -1.2987 C.ar    1  UNL1        0.0283
     29 N           3.9047   -1.5568   -1.1475 N.ar    1  UNL1       -0.2550
     30 H           1.3002    4.0500    0.0951 H       1  UNL1        0.0350
     31 H           0.9765    3.7837   -1.6445 H       1  UNL1        0.0350
     32 H           3.1483    2.3974   -0.8442 H       1  UNL1        0.0581
     33 H           1.8011   -2.2119    0.5431 H       1  UNL1        0.0631
     34 H           0.6100   -3.5178    1.8662 H       1  UNL1        0.0700
     35 H          -3.8719   -3.1578    2.3330 H       1  UNL1        0.0700
     36 H          -5.0749   -1.5004    1.5604 H       1  UNL1        0.0624
     37 H          -6.4469    0.2219    0.4337 H       1  UNL1        0.0624
     38 H          -6.2892    2.1820   -1.3989 H       1  UNL1        0.0699
     39 H          -1.8472    1.8499   -2.2157 H       1  UNL1        0.0700
     40 H          -1.1248    3.0364   -0.1355 H       1  UNL1        0.0581
     41 H           4.2735    0.9426    1.1098 H       1  UNL1        0.0639
     42 H           6.6699    0.3564    0.7910 H       1  UNL1        0.0619
     43 H           7.2700   -1.4826   -0.7928 H       1  UNL1        0.0633
     44 H           5.4250   -2.6637   -1.9920 H       1  UNL1        0.0830
@<TRIPOS>BOND
     1     1     2    1
     2     2     3    2
     3     3     4   ar
     4     4     5   ar
     5     5     6   ar
     6     6     7   ar
     7     7     8   ar
     8     8     9   ar
     9     9    10   ar
    10    10    11   ar
    11    11    12   ar
    12    12    13   ar
    13    13    14   ar
    14    14    15   ar
    15    15    16   ar
    16    16    17   ar
    17    17    18   ar
    18    18    19   ar
    19    19    20   ar
    20    20    21   ar
    21    21    22   ar
    22    22    23    2
    23     4    24    1
    24    24    25   ar
    25    25    26   ar
    26    26    27   ar
    27    27    28   ar
    28    28    29   ar
    29    23     1    1
    30    29    24   ar
    31    22     3   ar
    32    21     6   ar
    33    11     7   ar
    34    20    12   ar
    35    19    15   ar
    36     1    30    1
    37     1    31    1
    38     2    32    1
    39     5    33    1
    40     8    34    1
    41    10    35    1
    42    13    36    1
    43    14    37    1
    44    16    38    1
    45    18    39    1
    46    23    40    1
    47    25    41    1
    48    26    42    1
    49    27    43    1
    50    28    44    1
