@<TRIPOS>MOLECULE
*****
 37 42 0 0 0
SMALL
GASTEIGER

@<TRIPOS>ATOM
      1 C           0.1220    3.4458   -1.4395 C.3     1  UNL1       -0.0148
      2 C          -0.8722    2.4126   -0.9988 C.2     1  UNL1       -0.0719
      3 C          -0.2285    1.3584   -0.4713 C.ar    1  UNL1       -0.0134
      4 C          -0.7796    0.1266    0.0752 C.ar    1  UNL1       -0.0077
      5 C           0.0835   -0.8050    0.5428 C.ar    1  UNL1       -0.0451
      6 C           1.5436   -0.5995    0.4961 C.ar    1  UNL1       -0.0085
      7 C           2.4894   -1.5340    0.9560 C.ar    1  UNL1       -0.0031
      8 C           2.2015   -2.7655    1.4989 C.ar    1  UNL1       -0.0160
      9 S           3.6258   -3.6224    1.9448 S.2     1  UNL1       -0.1039
     10 C           4.6474   -2.3505    1.4097 C.ar    1  UNL1       -0.0166
     11 C           3.9158   -1.3032    0.9067 C.ar    1  UNL1       -0.0103
     12 C           4.5219   -0.1507    0.4074 C.ar    1  UNL1       -0.0529
     13 C           3.5774    0.7912   -0.0584 C.ar    1  UNL1       -0.0529
     14 C           2.1568    0.5904   -0.0223 C.ar    1  UNL1       -0.0098
     15 C           1.2120    1.6050   -0.5259 C.ar    1  UNL1       -0.0135
     16 C           1.4326    2.8087   -1.0799 C.2     1  UNL1       -0.0719
     17 C          -2.2179   -0.1450    0.1948 C.ar    1  UNL1        0.0109
     18 C          -3.0437    0.5263    1.1232 C.ar    1  UNL1       -0.0518
     19 C          -4.4312    0.2806    1.2452 C.ar    1  UNL1       -0.0590
     20 C          -5.1158   -0.6552    0.4509 C.ar    1  UNL1       -0.0335
     21 C          -4.3396   -1.3606   -0.5009 C.ar    1  UNL1        0.1005
     22 N          -4.8036   -2.2907   -1.3495 N.ar    1  UNL1       -0.1908
     23 S          -3.5012   -2.7995   -2.2444 S.2     1  UNL1        0.1165
     24 N          -2.2914   -1.8716   -1.5935 N.ar    1  UNL1       -0.1902
     25 C          -2.8547   -1.1075   -0.6403 C.ar    1  UNL1        0.1076
     26 H           0.0534    3.6244   -2.5165 H       1  UNL1        0.0350
     27 H          -0.0207    4.3861   -0.8991 H       1  UNL1        0.0350
     28 H          -1.9402    2.5200   -1.1093 H       1  UNL1        0.0581
     29 H          -0.2860   -1.7319    0.9664 H       1  UNL1        0.0630
     30 H           1.2433   -3.2346    1.6678 H       1  UNL1        0.0700
     31 H           5.7207   -2.4494    1.4960 H       1  UNL1        0.0699
     32 H           5.5887    0.0262    0.3674 H       1  UNL1        0.0624
     33 H           3.9676    1.7218   -0.4687 H       1  UNL1        0.0624
     34 H           2.3895    3.2714   -1.2613 H       1  UNL1        0.0581
     35 H          -2.5925    1.2708    1.7812 H       1  UNL1        0.0624
     36 H          -4.9950    0.8433    1.9899 H       1  UNL1        0.0618
     37 H          -6.1795   -0.8329    0.5552 H       1  UNL1        0.0640
@<TRIPOS>BOND
     1     1     2    1
     2     2     3    2
     3     3     4   ar
     4     4     5   ar
     5     5     6   ar
     6     6     7   ar
     7     7     8   ar
     8     8     9   ar
     9     9    10   ar
    10    10    11   ar
    11    11    12   ar
    12    12    13   ar
    13    13    14   ar
    14    14    15   ar
    15    15    16    2
    16     4    17    1
    17    17    18   ar
    18    18    19   ar
    19    19    20   ar
    20    20    21   ar
    21    21    22   ar
    22    22    23   ar
    23    23    24   ar
    24    24    25   ar
    25    16     1    1
    26    25    17   ar
    27    15     3   ar
    28    25    21   ar
    29    14     6   ar
    30    11     7   ar
    31     1    26    1
    32     1    27    1
    33     2    28    1
    34     5    29    1
    35     8    30    1
    36    10    31    1
    37    12    32    1
    38    13    33    1
    39    16    34    1
    40    18    35    1
    41    19    36    1
    42    20    37    1
