@<TRIPOS>MOLECULE
*****
 47 54 0 0 0
SMALL
GASTEIGER

@<TRIPOS>ATOM
      1 C          -1.0424    2.7534    2.3084 C.3     1  UNL1       -0.0148
      2 C          -2.0312    1.7533    1.8094 C.2     1  UNL1       -0.0719
      3 C          -1.3990    0.8166    1.0851 C.ar    1  UNL1       -0.0135
      4 C          -1.9950   -0.2509    0.3077 C.ar    1  UNL1       -0.0092
      5 C          -1.1774   -0.9864   -0.4713 C.ar    1  UNL1       -0.0436
      6 C           0.2852   -0.7630   -0.5031 C.ar    1  UNL1        0.0121
      7 C           1.0714   -1.5436   -1.3893 C.ar    1  UNL1        0.1083
      8 N           0.6072   -2.4436   -2.2769 N.ar    1  UNL1       -0.1901
      9 S           1.9146   -3.0493   -3.0825 S.2     1  UNL1        0.1165
     10 N           3.1251   -2.2218   -2.3335 N.ar    1  UNL1       -0.1901
     11 C           2.5742   -1.4182   -1.4050 C.ar    1  UNL1        0.1103
     12 C           3.2628   -0.5442   -0.4849 C.ar    1  UNL1        0.0398
     13 C           2.4210    0.2015    0.4066 C.ar    1  UNL1        0.0128
     14 C           3.1367    0.9170    1.3686 C.ar    1  UNL1        0.0367
     15 N           4.4821    1.0261    1.4539 N.ar    1  UNL1       -0.2528
     16 C           5.2212    0.3687    0.5537 C.ar    1  UNL1        0.0898
     17 C           6.6000    0.4951    0.6301 C.ar    1  UNL1       -0.0328
     18 C           7.4347   -0.1716   -0.2574 C.ar    1  UNL1       -0.0415
     19 C           6.8404   -0.9629   -1.2112 C.ar    1  UNL1        0.0284
     20 N           5.5047   -1.1105   -1.3165 N.ar    1  UNL1       -0.2528
     21 C           4.6846   -0.4549   -0.4515 C.ar    1  UNL1        0.0990
     22 C           0.9740    0.1684    0.3369 C.ar    1  UNL1        0.0010
     23 C           0.0482    1.0711    1.0911 C.ar    1  UNL1       -0.0128
     24 C           0.2481    2.2315    1.7446 C.2     1  UNL1       -0.0719
     25 C          -3.4212   -0.5746    0.2940 C.ar    1  UNL1       -0.0091
     26 C          -4.0108   -1.5848    1.0909 C.ar    1  UNL1       -0.0534
     27 C          -5.4104   -1.8894    1.0819 C.ar    1  UNL1       -0.0606
     28 C          -6.3597   -1.2170    0.2810 C.ar    1  UNL1       -0.0535
     29 C          -5.7723   -0.2211   -0.5004 C.ar    1  UNL1       -0.0103
     30 C          -6.4978    0.5669   -1.3591 C.ar    1  UNL1       -0.0166
     31 S          -5.4871    1.6941   -2.1736 S.2     1  UNL1       -0.1039
     32 C          -4.0752    1.1213   -1.3753 C.ar    1  UNL1       -0.0160
     33 C          -4.3642    0.0970   -0.5031 C.ar    1  UNL1       -0.0032
     34 H          -1.0155    2.7799    3.4014 H       1  UNL1        0.0350
     35 H          -1.2635    3.7519    1.9197 H       1  UNL1        0.0350
     36 H          -3.0979    1.8320    1.9592 H       1  UNL1        0.0581
     37 H          -1.5742   -1.7888   -1.0897 H       1  UNL1        0.0631
     38 H           2.6456    1.4209    2.1928 H       1  UNL1        0.0836
     39 H           7.0312    1.1264    1.4030 H       1  UNL1        0.0640
     40 H           8.5123   -0.0749   -0.1991 H       1  UNL1        0.0633
     41 H           7.4279   -1.5166   -1.9377 H       1  UNL1        0.0830
     42 H           1.1633    2.7884    1.8561 H       1  UNL1        0.0581
     43 H          -3.3688   -2.1670    1.7531 H       1  UNL1        0.0624
     44 H          -5.7612   -2.6895    1.7350 H       1  UNL1        0.0618
     45 H          -7.4130   -1.4642    0.2902 H       1  UNL1        0.0624
     46 H          -7.5599    0.5524   -1.5611 H       1  UNL1        0.0699
     47 H          -3.1190    1.5750   -1.5975 H       1  UNL1        0.0700
@<TRIPOS>BOND
     1     1     2    1
     2     2     3    2
     3     3     4   ar
     4     4     5   ar
     5     5     6   ar
     6     6     7   ar
     7     7     8   ar
     8     8     9   ar
     9     9    10   ar
    10    10    11   ar
    11    11    12   ar
    12    12    13   ar
    13    13    14   ar
    14    14    15   ar
    15    15    16   ar
    16    16    17   ar
    17    17    18   ar
    18    18    19   ar
    19    19    20   ar
    20    20    21   ar
    21    13    22   ar
    22    22    23   ar
    23    23    24    2
    24     4    25    1
    25    25    26   ar
    26    26    27   ar
    27    27    28   ar
    28    28    29   ar
    29    29    30   ar
    30    30    31   ar
    31    31    32   ar
    32    32    33   ar
    33    24     1    1
    34    33    25   ar
    35    23     3   ar
    36    33    29   ar
    37    22     6   ar
    38    11     7   ar
    39    21    12   ar
    40    21    16   ar
    41     1    34    1
    42     1    35    1
    43     2    36    1
    44     5    37    1
    45    14    38    1
    46    17    39    1
    47    18    40    1
    48    19    41    1
    49    24    42    1
    50    26    43    1
    51    27    44    1
    52    28    45    1
    53    30    46    1
    54    32    47    1
