@<TRIPOS>MOLECULE
*****
 41 47 0 0 0
SMALL
GASTEIGER

@<TRIPOS>ATOM
      1 C          -1.7855   -2.9732   -1.7415 C.3     1  UNL1       -0.0148
      2 C          -2.8106   -1.9571   -1.3521 C.2     1  UNL1       -0.0719
      3 C          -2.2120   -0.9126   -0.7561 C.ar    1  UNL1       -0.0129
      4 C          -2.8309    0.2930   -0.2317 C.ar    1  UNL1       -0.0032
      5 C          -2.0135    1.2144    0.3215 C.ar    1  UNL1       -0.0430
      6 C          -0.5467    1.0316    0.3901 C.ar    1  UNL1        0.0135
      7 C           0.2422    2.0492    0.9792 C.ar    1  UNL1        0.1084
      8 N          -0.2084    3.2051    1.5012 N.ar    1  UNL1       -0.1901
      9 S           1.1090    4.0340    2.0519 S.2     1  UNL1        0.1165
     10 N           2.3039    2.9701    1.6606 N.ar    1  UNL1       -0.1900
     11 C           1.7371    1.9008    1.0710 C.ar    1  UNL1        0.1117
     12 C           2.4012    0.7236    0.5649 C.ar    1  UNL1        0.0550
     13 C           3.8116    0.5496    0.6353 C.ar    1  UNL1        0.0837
     14 N           4.6510    1.4652    1.1784 N.ar    1  UNL1       -0.2542
     15 C           5.9824    1.2356    1.2120 C.ar    1  UNL1        0.0283
     16 C           6.5707    0.0946    0.7157 C.ar    1  UNL1       -0.0430
     17 C           5.7368   -0.8586    0.1552 C.ar    1  UNL1       -0.0497
     18 C           4.3501   -0.6325    0.1136 C.ar    1  UNL1        0.0192
     19 C           3.4802   -1.5547   -0.4353 C.ar    1  UNL1        0.0375
     20 N           2.1441   -1.3905   -0.5017 N.ar    1  UNL1       -0.2536
     21 C           1.5666   -0.2767   -0.0192 C.ar    1  UNL1        0.0835
     22 C           0.1472   -0.1207   -0.1003 C.ar    1  UNL1        0.0177
     23 C          -0.7631   -1.1406   -0.7055 C.ar    1  UNL1       -0.0114
     24 C          -0.5135   -2.3347   -1.2735 C.2     1  UNL1       -0.0719
     25 C          -4.2374    0.5582   -0.2224 C.ar    1  UNL1        0.0199
     26 C          -5.2282   -0.0577    0.5240 C.ar    1  UNL1       -0.0469
     27 C          -6.5283    0.4607    0.2574 C.ar    1  UNL1       -0.0541
     28 C          -6.4989    1.4545   -0.6933 C.ar    1  UNL1       -0.0237
     29 S          -4.9152    1.7553   -1.2605 S.2     1  UNL1       -0.0966
     30 H          -1.9595   -3.9260   -1.2332 H       1  UNL1        0.0350
     31 H          -1.7738   -3.1288   -2.8241 H       1  UNL1        0.0350
     32 H          -3.8684   -2.0645   -1.5391 H       1  UNL1        0.0581
     33 H          -2.4184    2.1307    0.7459 H       1  UNL1        0.0631
     34 H           6.5739    2.0258    1.6657 H       1  UNL1        0.0830
     35 H           7.6439   -0.0474    0.7639 H       1  UNL1        0.0633
     36 H           6.1659   -1.7730   -0.2472 H       1  UNL1        0.0625
     37 H           3.8369   -2.4916   -0.8564 H       1  UNL1        0.0836
     38 H           0.4490   -2.8039   -1.4016 H       1  UNL1        0.0581
     39 H          -5.0222   -0.8477    1.2366 H       1  UNL1        0.0629
     40 H          -7.4372    0.1206    0.7380 H       1  UNL1        0.0623
     41 H          -7.3321    2.0200   -1.0872 H       1  UNL1        0.0693
@<TRIPOS>BOND
     1     1     2    1
     2     2     3    2
     3     3     4   ar
     4     4     5   ar
     5     5     6   ar
     6     6     7   ar
     7     7     8   ar
     8     8     9   ar
     9     9    10   ar
    10    10    11   ar
    11    11    12   ar
    12    12    13   ar
    13    13    14   ar
    14    14    15   ar
    15    15    16   ar
    16    16    17   ar
    17    17    18   ar
    18    18    19   ar
    19    19    20   ar
    20    20    21   ar
    21    21    22   ar
    22    22    23   ar
    23    23    24    2
    24     4    25    1
    25    25    26   ar
    26    26    27   ar
    27    27    28   ar
    28    28    29   ar
    29    24     1    1
    30    29    25   ar
    31    23     3   ar
    32    22     6   ar
    33    11     7   ar
    34    21    12   ar
    35    18    13   ar
    36     1    30    1
    37     1    31    1
    38     2    32    1
    39     5    33    1
    40    15    34    1
    41    16    35    1
    42    17    36    1
    43    19    37    1
    44    24    38    1
    45    26    39    1
    46    27    40    1
    47    28    41    1
