@<TRIPOS>MOLECULE
*****
 40 47 0 0 0
SMALL
GASTEIGER

@<TRIPOS>ATOM
      1 C          -0.4389    2.2601   -2.8577 C.3     1  UNL1       -0.0148
      2 C          -1.5513    1.8746   -1.9363 C.2     1  UNL1       -0.0719
      3 C          -1.0782    1.0841   -0.9594 C.ar    1  UNL1       -0.0133
      4 C          -1.8151    0.4784    0.1383 C.ar    1  UNL1       -0.0062
      5 C          -1.1306   -0.2941    1.0091 C.ar    1  UNL1       -0.0434
      6 C           0.3204   -0.5431    0.8640 C.ar    1  UNL1        0.0126
      7 C           0.9774   -1.3708    1.8108 C.ar    1  UNL1        0.1083
      8 N           0.4235   -1.9858    2.8792 N.ar    1  UNL1       -0.1901
      9 S           1.6402   -2.8313    3.6490 S.2     1  UNL1        0.1165
     10 N           2.9350   -2.4508    2.6671 N.ar    1  UNL1       -0.1901
     11 C           2.3987   -1.6692    1.7440 C.ar    1  UNL1        0.1098
     12 C           3.1169   -1.0733    0.6563 C.ar    1  UNL1        0.0323
     13 C           4.5033   -1.3057    0.5092 C.ar    1  UNL1        0.0362
     14 S           5.7936   -2.1820    1.3022 S.2     1  UNL1       -0.0954
     15 C           6.9176   -1.6294    0.1377 C.ar    1  UNL1       -0.0227
     16 C           6.3677   -0.8144   -0.8220 C.ar    1  UNL1       -0.0403
     17 C           4.9693   -0.6366   -0.5929 C.ar    1  UNL1        0.0276
     18 S           3.7091    0.2533   -1.4136 S.2     1  UNL1       -0.0870
     19 C           2.4979   -0.2607   -0.2768 C.ar    1  UNL1        0.0314
     20 C           1.1044    0.0192   -0.1950 C.ar    1  UNL1        0.0061
     21 C           0.3652    0.8756   -1.1508 C.ar    1  UNL1       -0.0124
     22 C           0.7383    1.5586   -2.2476 C.2     1  UNL1       -0.0719
     23 C          -3.2441    0.6868    0.3813 C.ar    1  UNL1        0.0290
     24 C          -3.8023    1.8958    0.8085 C.ar    1  UNL1        0.0375
     25 N          -5.1281    2.1672    1.0449 N.ar    1  UNL1       -0.2604
     26 C          -6.0785    1.2020    0.8694 C.ar    1  UNL1        0.0557
     27 C          -5.6618   -0.0733    0.4368 C.ar    1  UNL1        0.1185
     28 N          -6.4486   -1.1374    0.2087 N.ar    1  UNL1       -0.1892
     29 S          -5.4438   -2.3645   -0.2822 S.2     1  UNL1        0.1165
     30 N          -3.9727   -1.6015   -0.2288 N.ar    1  UNL1       -0.1901
     31 C          -4.1996   -0.3405    0.1833 C.ar    1  UNL1        0.1105
     32 H          -0.6261    1.9037   -3.8748 H       1  UNL1        0.0350
     33 H          -0.2906    3.3438   -2.8675 H       1  UNL1        0.0350
     34 H          -2.5739    2.1933   -2.0700 H       1  UNL1        0.0581
     35 H          -1.6292   -0.7674    1.8523 H       1  UNL1        0.0631
     36 H           7.9512   -1.9387    0.2186 H       1  UNL1        0.0694
     37 H           6.9241   -0.3710   -1.6378 H       1  UNL1        0.0634
     38 H           1.7192    1.6293   -2.6845 H       1  UNL1        0.0581
     39 H          -3.1507    2.7517    0.9891 H       1  UNL1        0.0836
     40 H          -7.1088    1.4639    1.0701 H       1  UNL1        0.0852
@<TRIPOS>BOND
     1     1     2    1
     2     2     3    2
     3     3     4   ar
     4     4     5   ar
     5     5     6   ar
     6     6     7   ar
     7     7     8   ar
     8     8     9   ar
     9     9    10   ar
    10    10    11   ar
    11    11    12   ar
    12    12    13   ar
    13    13    14   ar
    14    14    15   ar
    15    15    16   ar
    16    16    17   ar
    17    17    18   ar
    18    18    19   ar
    19    19    20   ar
    20    20    21   ar
    21    21    22    2
    22     4    23    1
    23    23    24   ar
    24    24    25   ar
    25    25    26   ar
    26    26    27   ar
    27    27    28   ar
    28    28    29   ar
    29    29    30   ar
    30    30    31   ar
    31    22     1    1
    32    31    23   ar
    33    21     3   ar
    34    31    27   ar
    35    20     6   ar
    36    11     7   ar
    37    19    12   ar
    38    17    13   ar
    39     1    32    1
    40     1    33    1
    41     2    34    1
    42     5    35    1
    43    15    36    1
    44    16    37    1
    45    22    38    1
    46    24    39    1
    47    26    40    1
