@<TRIPOS>MOLECULE
*****
 47 54 0 0 0
SMALL
GASTEIGER

@<TRIPOS>ATOM
      1 C          -2.6040   -2.9810    1.6423 C.3     1  UNL1       -0.0148
      2 C          -1.3942   -2.2546    1.1358 C.2     1  UNL1       -0.0719
      3 C          -1.7669   -1.1087    0.5439 C.ar    1  UNL1       -0.0135
      4 C          -0.9394   -0.0918   -0.0865 C.ar    1  UNL1       -0.0092
      5 C          -1.5529    0.9962   -0.6041 C.ar    1  UNL1       -0.0436
      6 C          -3.0224    1.1560   -0.5563 C.ar    1  UNL1        0.0115
      7 C          -3.6395    2.3083   -1.1175 C.ar    1  UNL1        0.1076
      8 N          -3.0367    3.3463   -1.7263 N.ar    1  UNL1       -0.1902
      9 S          -4.2349    4.3985   -2.1823 S.2     1  UNL1        0.1165
     10 N          -5.5807    3.5972   -1.6339 N.ar    1  UNL1       -0.1908
     11 C          -5.1422    2.4635   -1.0660 C.ar    1  UNL1        0.1005
     12 C          -5.9604    1.4773   -0.4647 C.ar    1  UNL1       -0.0329
     13 C          -5.3016    0.3575    0.0764 C.ar    1  UNL1       -0.0513
     14 C          -3.8936    0.1923    0.0388 C.ar    1  UNL1       -0.0083
     15 C          -3.2224   -0.9876    0.6133 C.ar    1  UNL1       -0.0134
     16 C          -3.7239   -2.0620    1.2445 C.2     1  UNL1       -0.0719
     17 C           0.5183   -0.1528   -0.1720 C.ar    1  UNL1       -0.0076
     18 C           1.4031    0.5447    0.6783 C.ar    1  UNL1       -0.0450
     19 C           2.8488    0.4463    0.5718 C.ar    1  UNL1       -0.0059
     20 C           3.7950    1.1107    1.3829 C.ar    1  UNL1        0.0276
     21 C           3.5614    1.9744    2.4231 C.ar    1  UNL1        0.1000
     22 O           4.7503    2.4014    2.9502 O.2     1  UNL1       -0.4698
     23 C           5.7547    1.8049    2.2387 C.ar    1  UNL1        0.0994
     24 C           5.2145    1.0047    1.2677 C.ar    1  UNL1        0.0205
     25 C           5.9173    0.2384    0.3485 C.ar    1  UNL1       -0.0504
     26 C           5.0258   -0.4557   -0.4974 C.ar    1  UNL1       -0.0527
     27 C           3.5726   -0.3640   -0.3991 C.ar    1  UNL1       -0.0080
     28 C           2.6323   -1.0362   -1.2175 C.ar    1  UNL1        0.0077
     29 C           2.9049   -1.8963   -2.2551 C.ar    1  UNL1        0.0100
     30 N           1.6976   -2.3129   -2.7738 N.ar    1  UNL1       -0.3659
     31 C           0.6570   -1.7344   -2.0829 C.ar    1  UNL1        0.0100
     32 C           1.2051   -0.9359   -1.1075 C.ar    1  UNL1        0.0077
     33 H          -2.5637   -3.1051    2.7283 H       1  UNL1        0.0350
     34 H          -2.7072   -3.9583    1.1620 H       1  UNL1        0.0350
     35 H          -0.3817   -2.6156    1.2390 H       1  UNL1        0.0581
     36 H          -0.9827    1.7891   -1.0823 H       1  UNL1        0.0631
     37 H          -7.0379    1.5855   -0.4258 H       1  UNL1        0.0640
     38 H          -5.9191   -0.4090    0.5431 H       1  UNL1        0.0624
     39 H          -4.7622   -2.2649    1.4536 H       1  UNL1        0.0581
     40 H           0.9775    1.1825    1.4516 H       1  UNL1        0.0630
     41 H           2.6778    2.3755    2.8982 H       1  UNL1        0.1036
     42 H           6.7584    2.0561    2.5507 H       1  UNL1        0.1035
     43 H           6.9925    0.1668    0.2709 H       1  UNL1        0.0625
     44 H           5.4521   -1.0968   -1.2681 H       1  UNL1        0.0624
     45 H           3.8313   -2.2544   -2.6818 H       1  UNL1        0.0813
     46 H           1.5905   -2.9500   -3.5525 H       1  UNL1        0.1648
     47 H          -0.3688   -1.9462   -2.3542 H       1  UNL1        0.0813
@<TRIPOS>BOND
     1     1     2    1
     2     2     3    2
     3     3     4   ar
     4     4     5   ar
     5     5     6   ar
     6     6     7   ar
     7     7     8   ar
     8     8     9   ar
     9     9    10   ar
    10    10    11   ar
    11    11    12   ar
    12    12    13   ar
    13    13    14   ar
    14    14    15   ar
    15    15    16    2
    16     4    17    1
    17    17    18   ar
    18    18    19   ar
    19    19    20   ar
    20    20    21   ar
    21    21    22   ar
    22    22    23   ar
    23    23    24   ar
    24    24    25   ar
    25    25    26   ar
    26    26    27   ar
    27    27    28   ar
    28    28    29   ar
    29    29    30   ar
    30    30    31   ar
    31    31    32   ar
    32    16     1    1
    33    32    17   ar
    34    15     3   ar
    35    27    19   ar
    36    32    28   ar
    37    14     6   ar
    38    24    20   ar
    39    11     7   ar
    40     1    33    1
    41     1    34    1
    42     2    35    1
    43     5    36    1
    44    12    37    1
    45    13    38    1
    46    16    39    1
    47    18    40    1
    48    21    41    1
    49    23    42    1
    50    25    43    1
    51    26    44    1
    52    29    45    1
    53    30    46    1
    54    31    47    1
