@<TRIPOS>MOLECULE
*****
 44 51 0 0 0
SMALL
GASTEIGER

@<TRIPOS>ATOM
      1 C          -1.9558    3.4226    1.2688 C.3     1  UNL1       -0.0148
      2 C          -0.8570    2.4306    1.0271 C.2     1  UNL1       -0.0719
      3 C          -1.3611    1.3225    0.4607 C.ar    1  UNL1       -0.0135
      4 C          -0.6738    0.1072    0.0503 C.ar    1  UNL1       -0.0091
      5 C          -1.4057   -0.8724   -0.5267 C.ar    1  UNL1       -0.0436
      6 C          -2.8653   -0.7384   -0.7259 C.ar    1  UNL1        0.0115
      7 C          -3.6087   -1.7915   -1.3278 C.ar    1  UNL1        0.1076
      8 N          -3.1416   -2.9725   -1.7735 N.ar    1  UNL1       -0.1902
      9 S          -4.4424   -3.8067   -2.3766 S.2     1  UNL1        0.1165
     10 N          -5.6657   -2.7188   -2.1041 N.ar    1  UNL1       -0.1908
     11 C          -5.1000   -1.6485   -1.5259 C.ar    1  UNL1        0.1005
     12 C          -5.7837   -0.4770   -1.1214 C.ar    1  UNL1       -0.0329
     13 C          -5.0032    0.5349   -0.5314 C.ar    1  UNL1       -0.0513
     14 C          -3.6031    0.4212   -0.3365 C.ar    1  UNL1       -0.0083
     15 C          -2.8024    1.4933    0.2813 C.ar    1  UNL1       -0.0134
     16 C          -3.1642    2.7009    0.7449 C.2     1  UNL1       -0.0719
     17 C           0.7607   -0.1218    0.2016 C.ar    1  UNL1       -0.0059
     18 C           1.7091   -0.0804   -0.8458 C.ar    1  UNL1       -0.0435
     19 C           3.1341   -0.3020   -0.6586 C.ar    1  UNL1        0.0116
     20 C           4.0583   -0.2491   -1.7558 C.ar    1  UNL1        0.1076
     21 N           3.7561    0.0001   -3.0437 N.ar    1  UNL1       -0.1902
     22 S           5.1787   -0.0561   -3.8933 S.2     1  UNL1        0.1165
     23 N           6.2554   -0.3956   -2.6782 N.ar    1  UNL1       -0.1908
     24 C           5.5399   -0.4823   -1.5463 C.ar    1  UNL1        0.1005
     25 C           6.0756   -0.7609   -0.2656 C.ar    1  UNL1       -0.0329
     26 C           5.1631   -0.8093    0.7977 C.ar    1  UNL1       -0.0512
     27 C           3.7614   -0.5908    0.6139 C.ar    1  UNL1       -0.0049
     28 C           2.7717   -0.6196    1.6234 C.ar    1  UNL1        0.0282
     29 C           2.9383   -0.8590    2.9641 C.ar    1  UNL1        0.1000
     30 O           1.7296   -0.8019    3.6002 O.2     1  UNL1       -0.4698
     31 C           0.7799   -0.5252    2.6572 C.ar    1  UNL1        0.1000
     32 C           1.3717   -0.3991    1.4261 C.ar    1  UNL1        0.0282
     33 H          -1.7795    4.3490    0.7146 H       1  UNL1        0.0350
     34 H          -2.0602    3.6436    2.3350 H       1  UNL1        0.0350
     35 H           0.1785    2.6051    1.2780 H       1  UNL1        0.0581
     36 H          -0.9460   -1.8005   -0.8582 H       1  UNL1        0.0631
     37 H          -6.8529   -0.3709   -1.2619 H       1  UNL1        0.0640
     38 H          -5.5167    1.4424   -0.2158 H       1  UNL1        0.0624
     39 H          -4.1569    3.1223    0.7506 H       1  UNL1        0.0581
     40 H           1.3512    0.1347   -1.8550 H       1  UNL1        0.0631
     41 H           7.1369   -0.9271   -0.1233 H       1  UNL1        0.0640
     42 H           5.5480   -1.0221    1.7942 H       1  UNL1        0.0624
     43 H           3.7822   -1.0762    3.6032 H       1  UNL1        0.1036
     44 H          -0.2345   -0.4547    3.0250 H       1  UNL1        0.1036
@<TRIPOS>BOND
     1     1     2    1
     2     2     3    2
     3     3     4   ar
     4     4     5   ar
     5     5     6   ar
     6     6     7   ar
     7     7     8   ar
     8     8     9   ar
     9     9    10   ar
    10    10    11   ar
    11    11    12   ar
    12    12    13   ar
    13    13    14   ar
    14    14    15   ar
    15    15    16    2
    16     4    17    1
    17    17    18   ar
    18    18    19   ar
    19    19    20   ar
    20    20    21   ar
    21    21    22   ar
    22    22    23   ar
    23    23    24   ar
    24    24    25   ar
    25    25    26   ar
    26    26    27   ar
    27    27    28   ar
    28    28    29   ar
    29    29    30   ar
    30    30    31   ar
    31    31    32   ar
    32    16     1    1
    33    32    17   ar
    34    15     3   ar
    35    27    19   ar
    36    32    28   ar
    37    14     6   ar
    38    24    20   ar
    39    11     7   ar
    40     1    33    1
    41     1    34    1
    42     2    35    1
    43     5    36    1
    44    12    37    1
    45    13    38    1
    46    16    39    1
    47    18    40    1
    48    25    41    1
    49    26    42    1
    50    29    43    1
    51    31    44    1
