@<TRIPOS>MOLECULE
*****
 34 39 0 0 0
SMALL
GASTEIGER

@<TRIPOS>ATOM
      1 C          -0.3986    3.3897   -0.1491 C.3     1  UNL1       -0.0148
      2 C           0.6159    2.3022   -0.3423 C.2     1  UNL1       -0.0719
      3 C           0.0150    1.1018   -0.2892 C.ar    1  UNL1       -0.0130
      4 C           0.6013   -0.2267   -0.4327 C.ar    1  UNL1       -0.0026
      5 C          -0.2341   -1.2893   -0.3527 C.ar    1  UNL1       -0.0431
      6 C          -1.6890   -1.1311   -0.1379 C.ar    1  UNL1        0.0115
      7 C          -2.5338   -2.2736   -0.0652 C.ar    1  UNL1        0.1076
      8 N          -2.1738   -3.5659   -0.1731 N.ar    1  UNL1       -0.1902
      9 S          -3.5585   -4.4654   -0.0136 S.2     1  UNL1        0.1165
     10 N          -4.6863   -3.2675    0.2041 N.ar    1  UNL1       -0.1908
     11 C          -4.0188   -2.1047    0.1582 C.ar    1  UNL1        0.1005
     12 C          -4.5965   -0.8204    0.2995 C.ar    1  UNL1       -0.0329
     13 C          -3.7180    0.2765    0.2209 C.ar    1  UNL1       -0.0513
     14 C          -2.3219    0.1397    0.0117 C.ar    1  UNL1       -0.0083
     15 C          -1.4178    1.2998   -0.0698 C.ar    1  UNL1       -0.0134
     16 C          -1.6742    2.6155    0.0168 C.2     1  UNL1       -0.0719
     17 C           1.9938   -0.4871   -0.6107 C.ar    1  UNL1        0.0308
     18 S           2.6179   -1.2317   -2.0748 S.2     1  UNL1       -0.0923
     19 C           4.2684   -1.1718   -1.5478 C.ar    1  UNL1        0.0192
     20 C           4.2848   -0.6030   -0.3303 C.ar    1  UNL1        0.1424
     21 O           5.3830   -0.3623    0.4359 O.2     1  UNL1       -0.4624
     22 C           4.7751    0.2183    1.5349 C.ar    1  UNL1        0.0932
     23 C           3.3817    0.3222    1.4325 C.ar    1  UNL1       -0.0150
     24 C           3.0663   -0.2307    0.1782 C.ar    1  UNL1        0.0349
     25 H          -0.4464    4.0443   -1.0243 H       1  UNL1        0.0350
     26 H          -0.1775    3.9816    0.7438 H       1  UNL1        0.0350
     27 H           1.6675    2.4835   -0.5062 H       1  UNL1        0.0581
     28 H           0.1386   -2.3079   -0.4327 H       1  UNL1        0.0631
     29 H          -5.6610   -0.6951    0.4596 H       1  UNL1        0.0640
     30 H          -4.1498    1.2709    0.3277 H       1  UNL1        0.0624
     31 H          -2.6350    3.0800    0.1725 H       1  UNL1        0.0581
     32 H           5.0988   -1.5377   -2.1331 H       1  UNL1        0.0731
     33 H           5.4672    0.5068    2.3153 H       1  UNL1        0.1030
     34 H           2.7157    0.7393    2.1740 H       1  UNL1        0.0655
@<TRIPOS>BOND
     1     1     2    1
     2     2     3    2
     3     3     4   ar
     4     4     5   ar
     5     5     6   ar
     6     6     7   ar
     7     7     8   ar
     8     8     9   ar
     9     9    10   ar
    10    10    11   ar
    11    11    12   ar
    12    12    13   ar
    13    13    14   ar
    14    14    15   ar
    15    15    16    2
    16     4    17    1
    17    17    18   ar
    18    18    19   ar
    19    19    20   ar
    20    20    21   ar
    21    21    22   ar
    22    22    23   ar
    23    23    24   ar
    24    16     1    1
    25    24    17   ar
    26    15     3   ar
    27    24    20   ar
    28    14     6   ar
    29    11     7   ar
    30     1    25    1
    31     1    26    1
    32     2    27    1
    33     5    28    1
    34    12    29    1
    35    13    30    1
    36    16    31    1
    37    19    32    1
    38    22    33    1
    39    23    34    1
