@<TRIPOS>MOLECULE
*****
 47 54 0 0 0
SMALL
GASTEIGER

@<TRIPOS>ATOM
      1 SI         -0.8111   -3.9597   -0.3554 Si      1  UNL1        0.0000
      2 C          -1.9888   -2.5876    0.0865 C.2     1  UNL1        0.0000
      3 C          -1.3456   -1.4155    0.2759 C.ar    1  UNL1        0.0000
      4 C          -2.0040   -0.1511    0.6362 C.ar    1  UNL1        0.0000
      5 C          -1.2434    0.9558    0.8015 C.ar    1  UNL1        0.0000
      6 C           0.2153    0.9196    0.6406 C.ar    1  UNL1        0.0000
      7 C           1.0388    2.0383    0.8102 C.ar    1  UNL1        0.0000
      8 C           0.6790    3.3241    1.1473 C.ar    1  UNL1        0.0000
      9 O           1.7879    4.1335    1.2138 O.2     1  UNL1        0.0000
     10 C           2.8835    3.3621    0.9168 C.ar    1  UNL1        0.0000
     11 C           2.4372    2.1029    0.6739 C.ar    1  UNL1        0.0000
     12 C           3.1201    0.9119    0.3243 C.ar    1  UNL1        0.0000
     13 C           4.4716    0.6334    0.1134 C.ar    1  UNL1        0.0000
     14 C           5.7018    1.3140    0.1376 C.ar    1  UNL1        0.0000
     15 C           6.8732    0.5997   -0.1546 C.ar    1  UNL1        0.0000
     16 C           6.8301   -0.7616   -0.4651 C.ar    1  UNL1        0.0000
     17 C           5.6178   -1.4578   -0.4949 C.ar    1  UNL1        0.0000
     18 C           4.4682   -0.7266   -0.2011 C.ar    1  UNL1        0.0000
     19 O           3.2002   -1.2396   -0.1825 O.2     1  UNL1        0.0000
     20 C           2.3408   -0.2195    0.1472 C.ar    1  UNL1        0.0000
     21 C           0.9304   -0.2679    0.2890 C.ar    1  UNL1        0.0000
     22 C           0.1309   -1.4947    0.0944 C.ar    1  UNL1        0.0000
     23 C           0.5812   -2.7234   -0.2340 C.2     1  UNL1        0.0000
     24 C          -3.4187    0.0123    0.7928 C.ar    1  UNL1        0.0000
     25 S          -4.1211    0.1006    2.3860 S.2     1  UNL1        0.0000
     26 C          -5.7289    0.2648    1.7824 C.ar    1  UNL1        0.0000
     27 C          -5.7065    0.2433    0.4231 C.ar    1  UNL1        0.0000
     28 SI         -6.9788    0.3536   -0.9590 Si      1  UNL1        0.0000
     29 C          -5.5449    0.1823   -2.2133 C.2     1  UNL1        0.0000
     30 C          -4.3531    0.0684   -1.5866 C.2     1  UNL1        0.0000
     31 C          -4.4163    0.0991   -0.1534 C.ar    1  UNL1        0.0000
     32 H          -1.0113   -4.4540   -1.7393 H       1  UNL1        0.0000
     33 H          -0.7361   -5.0071    0.6915 H       1  UNL1        0.0000
     34 H          -3.0488   -2.7712    0.1692 H       1  UNL1        0.0000
     35 H          -1.7027    1.9064    1.0530 H       1  UNL1        0.0000
     36 H          -0.2558    3.8215    1.3650 H       1  UNL1        0.0000
     37 H           3.8359    3.8702    0.9313 H       1  UNL1        0.0000
     38 H           5.7577    2.3710    0.3765 H       1  UNL1        0.0000
     39 H           7.8313    1.1158   -0.1387 H       1  UNL1        0.0000
     40 H           7.7545   -1.2909   -0.6875 H       1  UNL1        0.0000
     41 H           5.5673   -2.5133   -0.7335 H       1  UNL1        0.0000
     42 H           1.5964   -3.0351   -0.4147 H       1  UNL1        0.0000
     43 H          -6.5648    0.3607    2.4618 H       1  UNL1        0.0000
     44 H          -7.8930   -0.8132   -1.0344 H       1  UNL1        0.0000
     45 H          -7.6321    1.6811   -1.0759 H       1  UNL1        0.0000
     46 H          -5.7328    0.1833   -3.2748 H       1  UNL1        0.0000
     47 H          -3.4125   -0.0402   -2.1152 H       1  UNL1        0.0000
@<TRIPOS>BOND
     1     1     2    1
     2     2     3    2
     3     3     4   ar
     4     4     5   ar
     5     5     6   ar
     6     6     7   ar
     7     7     8   ar
     8     8     9   ar
     9     9    10   ar
    10    10    11   ar
    11    11    12   ar
    12    12    13   ar
    13    13    14   ar
    14    14    15   ar
    15    15    16   ar
    16    16    17   ar
    17    17    18   ar
    18    18    19   ar
    19    19    20   ar
    20    20    21   ar
    21    21    22   ar
    22    22    23    2
    23     4    24    1
    24    24    25   ar
    25    25    26   ar
    26    26    27   ar
    27    27    28    1
    28    28    29    1
    29    29    30    2
    30    30    31    1
    31    23     1    1
    32    31    24   ar
    33    22     3   ar
    34    31    27   ar
    35    21     6   ar
    36    11     7   ar
    37    20    12   ar
    38    18    13   ar
    39     1    32    1
    40     1    33    1
    41     2    34    1
    42     5    35    1
    43     8    36    1
    44    10    37    1
    45    14    38    1
    46    15    39    1
    47    16    40    1
    48    17    41    1
    49    23    42    1
    50    26    43    1
    51    28    44    1
    52    28    45    1
    53    29    46    1
    54    30    47    1
