@<TRIPOS>MOLECULE
*****
 49 56 0 0 0
SMALL
GASTEIGER

@<TRIPOS>ATOM
      1 C          -1.7010   -3.3517    1.2005 C.3     1  UNL1       -0.0148
      2 C          -2.6681   -2.4311    0.5175 C.2     1  UNL1       -0.0719
      3 C          -2.0127   -1.3655    0.0284 C.ar    1  UNL1       -0.0130
      4 C          -2.5317   -0.2231   -0.7104 C.ar    1  UNL1       -0.0027
      5 C          -1.6428    0.7205   -1.1021 C.ar    1  UNL1       -0.0451
      6 C          -0.1836    0.6300   -0.8199 C.ar    1  UNL1       -0.0147
      7 C           0.6551    1.6585   -1.2767 C.ar    1  UNL1       -0.0300
      8 C           2.0264    1.5647   -1.0003 C.ar    1  UNL1        0.0481
      9 N           3.0516    2.4340   -1.3359 N.ar    1  UNL1       -0.3541
     10 C           4.2650    1.9754   -0.8736 C.ar    1  UNL1        0.0481
     11 C           5.5748    2.5174   -0.9734 C.ar    1  UNL1       -0.0371
     12 C           6.6800    1.8453   -0.4060 C.ar    1  UNL1       -0.0506
     13 C           6.3190    0.6588    0.2196 C.ar    1  UNL1        0.0001
     14 C           7.1869   -0.1981    0.8544 C.ar    1  UNL1        0.0094
     15 N           6.4421   -1.2589    1.3446 N.ar    1  UNL1       -0.3659
     16 C           5.1052   -1.0949    1.0333 C.ar    1  UNL1        0.0101
     17 C           5.0465    0.0801    0.3466 C.ar    1  UNL1        0.0091
     18 C           3.9538    0.7840   -0.2369 C.ar    1  UNL1        0.0165
     19 C           2.5836    0.4935   -0.2920 C.ar    1  UNL1        0.0086
     20 C           1.7329   -0.5342    0.1620 C.ar    1  UNL1       -0.0437
     21 C           0.3556   -0.4643   -0.1019 C.ar    1  UNL1       -0.0097
     22 C          -0.5922   -1.4988    0.3376 C.ar    1  UNL1       -0.0135
     23 C          -0.3921   -2.6399    1.0174 C.2     1  UNL1       -0.0719
     24 C          -3.9116   -0.0057   -1.0142 C.ar    1  UNL1        0.0273
     25 S          -4.4981   -0.0717   -2.6545 S.2     1  UNL1       -0.0958
     26 C          -6.1333    0.2444   -2.1945 C.ar    1  UNL1       -0.0197
     27 C          -6.2277    0.3870   -0.8388 C.ar    1  UNL1       -0.0289
     28 C          -7.2950    0.6555    0.1664 C.3     1  UNL1       -0.0081
     29 C          -6.4724    0.6407    1.4585 C.2     1  UNL1       -0.0791
     30 C          -5.1650    0.4034    1.2061 C.2     1  UNL1       -0.0568
     31 C          -4.9782    0.2419   -0.1919 C.ar    1  UNL1       -0.0070
     32 H          -1.9443   -3.4628    2.2611 H       1  UNL1        0.0350
     33 H          -1.6855   -4.3342    0.7198 H       1  UNL1        0.0350
     34 H          -3.7283   -2.6174    0.4364 H       1  UNL1        0.0581
     35 H          -1.9747    1.6044   -1.6401 H       1  UNL1        0.0630
     36 H           0.2588    2.5047   -1.8291 H       1  UNL1        0.0644
     37 H           2.9245    3.2914   -1.8523 H       1  UNL1        0.1659
     38 H           5.7351    3.4599   -1.4913 H       1  UNL1        0.0638
     39 H           7.6891    2.2299   -0.4641 H       1  UNL1        0.0625
     40 H           8.2566   -0.1658    1.0092 H       1  UNL1        0.0813
     41 H           6.8238   -2.0425    1.8576 H       1  UNL1        0.1648
     42 H           4.3693   -1.8250    1.3343 H       1  UNL1        0.0813
     43 H           2.1485   -1.3704    0.7106 H       1  UNL1        0.0631
     44 H           0.5508   -3.0156    1.3817 H       1  UNL1        0.0581
     45 H          -6.9115    0.3010   -2.9423 H       1  UNL1        0.0696
     46 H          -7.7618    1.6325    0.0138 H       1  UNL1        0.0356
     47 H          -8.0514   -0.1342    0.1781 H       1  UNL1        0.0356
     48 H          -6.8974    0.8028    2.4377 H       1  UNL1        0.0575
     49 H          -4.3749    0.3441    1.9418 H       1  UNL1        0.0621
@<TRIPOS>BOND
     1     1     2    1
     2     2     3    2
     3     3     4   ar
     4     4     5   ar
     5     5     6   ar
     6     6     7   ar
     7     7     8   ar
     8     8     9   ar
     9     9    10   ar
    10    10    11   ar
    11    11    12   ar
    12    12    13   ar
    13    13    14   ar
    14    14    15   ar
    15    15    16   ar
    16    16    17   ar
    17    17    18   ar
    18    18    19   ar
    19    19    20   ar
    20    20    21   ar
    21    21    22   ar
    22    22    23    2
    23     4    24    1
    24    24    25   ar
    25    25    26   ar
    26    26    27   ar
    27    27    28    1
    28    28    29    1
    29    29    30    2
    30    30    31    1
    31    23     1    1
    32    31    24   ar
    33    22     3   ar
    34    31    27   ar
    35    21     6   ar
    36    19     8   ar
    37    18    10   ar
    38    17    13   ar
    39     1    32    1
    40     1    33    1
    41     2    34    1
    42     5    35    1
    43     7    36    1
    44     9    37    1
    45    11    38    1
    46    12    39    1
    47    14    40    1
    48    15    41    1
    49    16    42    1
    50    20    43    1
    51    23    44    1
    52    26    45    1
    53    28    46    1
    54    28    47    1
    55    29    48    1
    56    30    49    1
