@<TRIPOS>MOLECULE
*****
 48 55 0 0 0
SMALL
GASTEIGER

@<TRIPOS>ATOM
      1 C           2.2605    1.6992   -3.1608 C.3     1  UNL1       -0.0148
      2 C           3.0470    1.4431   -1.9090 C.2     1  UNL1       -0.0719
      3 C           2.2297    0.9927   -0.9427 C.ar    1  UNL1       -0.0129
      4 C           2.5420    0.6217    0.4316 C.ar    1  UNL1       -0.0013
      5 C           1.5142    0.2168    1.2149 C.ar    1  UNL1       -0.0451
      6 C           0.1103    0.1370    0.7316 C.ar    1  UNL1       -0.0161
      7 C          -0.8922   -0.2879    1.6032 C.ar    1  UNL1       -0.0455
      8 C          -2.2282   -0.3730    1.1451 C.ar    1  UNL1       -0.0045
      9 C          -3.3379   -0.7830    1.9082 C.ar    1  UNL1        0.0283
     10 C          -3.3738   -1.1776    3.2211 C.ar    1  UNL1        0.1000
     11 O          -4.6569   -1.4946    3.5718 O.2     1  UNL1       -0.4698
     12 C          -5.4425   -1.2984    2.4701 C.ar    1  UNL1        0.1000
     13 C          -4.6701   -0.8607    1.4251 C.ar    1  UNL1        0.0296
     14 C          -5.0698   -0.5385    0.1134 C.ar    1  UNL1        0.0117
     15 C          -6.3835   -0.6052   -0.3963 C.ar    1  UNL1       -0.0504
     16 C          -6.6005   -0.2506   -1.7154 C.ar    1  UNL1       -0.0430
     17 C          -5.5088    0.1506   -2.4606 C.ar    1  UNL1        0.0283
     18 N          -4.2392    0.2206   -1.9881 N.ar    1  UNL1       -0.2543
     19 C          -3.9746   -0.1144   -0.7055 C.ar    1  UNL1        0.0794
     20 C          -2.6142   -0.0382   -0.1997 C.ar    1  UNL1        0.0094
     21 C          -1.5641    0.3859   -1.0385 C.ar    1  UNL1       -0.0437
     22 C          -0.2308    0.4771   -0.5995 C.ar    1  UNL1       -0.0098
     23 C           0.8689    0.9230   -1.4669 C.ar    1  UNL1       -0.0135
     24 C           0.8670    1.3234   -2.7489 C.2     1  UNL1       -0.0719
     25 C           3.8441    0.6205    1.0025 C.ar    1  UNL1        0.0438
     26 S           4.3756    1.6960    2.2605 S.2     1  UNL1       -0.0939
     27 C           5.9842    1.0328    2.2998 C.ar    1  UNL1       -0.0145
     28 C           6.0423    0.0506    1.3782 C.ar    1  UNL1        0.0073
     29 C           6.9359   -0.9047    0.8352 C.ar    1  UNL1       -0.0361
     30 C           6.2254   -1.6215   -0.1523 C.ar    1  UNL1        0.0028
     31 N           4.9118   -1.1710   -0.2695 N.ar    1  UNL1       -0.3598
     32 C           4.8842   -0.1783    0.6695 C.ar    1  UNL1        0.0614
     33 H           2.6122    1.0693   -3.9831 H       1  UNL1        0.0350
     34 H           2.3149    2.7522   -3.4521 H       1  UNL1        0.0350
     35 H           4.1093    1.6147   -1.8177 H       1  UNL1        0.0581
     36 H           1.6871   -0.0832    2.2455 H       1  UNL1        0.0630
     37 H          -0.6493   -0.5519    2.6284 H       1  UNL1        0.0630
     38 H          -2.6410   -1.2885    4.0077 H       1  UNL1        0.1036
     39 H          -6.4924   -1.5135    2.6092 H       1  UNL1        0.1036
     40 H          -7.2141   -0.9262    0.2238 H       1  UNL1        0.0625
     41 H          -7.5911   -0.2845   -2.1539 H       1  UNL1        0.0633
     42 H          -5.6231    0.4402   -3.5021 H       1  UNL1        0.0830
     43 H          -1.7984    0.6545   -2.0678 H       1  UNL1        0.0631
     44 H           0.0112    1.3874   -3.4028 H       1  UNL1        0.0581
     45 H           6.7353    1.4095    2.9784 H       1  UNL1        0.0700
     46 H           7.9692   -1.0737    1.1076 H       1  UNL1        0.0639
     47 H           6.5587   -2.4305   -0.7895 H       1  UNL1        0.0807
     48 H           4.1557   -1.4691   -0.8752 H       1  UNL1        0.1654
@<TRIPOS>BOND
     1     1     2    1
     2     2     3    2
     3     3     4   ar
     4     4     5   ar
     5     5     6   ar
     6     6     7   ar
     7     7     8   ar
     8     8     9   ar
     9     9    10   ar
    10    10    11   ar
    11    11    12   ar
    12    12    13   ar
    13    13    14   ar
    14    14    15   ar
    15    15    16   ar
    16    16    17   ar
    17    17    18   ar
    18    18    19   ar
    19    19    20   ar
    20    20    21   ar
    21    21    22   ar
    22    22    23   ar
    23    23    24    2
    24     4    25    1
    25    25    26   ar
    26    26    27   ar
    27    27    28   ar
    28    28    29   ar
    29    29    30   ar
    30    30    31   ar
    31    31    32   ar
    32    24     1    1
    33    32    25   ar
    34    23     3   ar
    35    32    28   ar
    36    22     6   ar
    37    20     8   ar
    38    13     9   ar
    39    19    14   ar
    40     1    33    1
    41     1    34    1
    42     2    35    1
    43     5    36    1
    44     7    37    1
    45    10    38    1
    46    12    39    1
    47    15    40    1
    48    16    41    1
    49    17    42    1
    50    21    43    1
    51    24    44    1
    52    27    45    1
    53    29    46    1
    54    30    47    1
    55    31    48    1
