@<TRIPOS>MOLECULE
*****
 48 55 0 0 0
SMALL
GASTEIGER

@<TRIPOS>ATOM
      1 C           3.0480    2.3621    2.1696 C.3     1  UNL1        0.0000
      2 C           3.9407    1.4920    1.3370 C.2     1  UNL1        0.0000
      3 C           3.2059    0.6656    0.5730 C.ar    1  UNL1        0.0000
      4 C           3.6260   -0.3472   -0.3966 C.ar    1  UNL1        0.0000
      5 C           2.6367   -1.0024   -1.0563 C.ar    1  UNL1        0.0000
      6 C           1.1913   -0.7509   -0.8310 C.ar    1  UNL1        0.0000
      7 C           0.2425   -1.4438   -1.5789 C.ar    1  UNL1        0.0000
      8 C          -1.1404   -1.2193   -1.3757 C.ar    1  UNL1        0.0000
      9 C          -2.0944   -1.8767   -2.2194 C.ar    1  UNL1        0.0000
     10 N          -1.8200   -2.7450   -3.2119 N.ar    1  UNL1        0.0000
     11 S          -3.2634   -3.1554   -3.9081 S.2     1  UNL1        0.0000
     12 N          -4.3050   -2.2566   -2.9898 N.ar    1  UNL1        0.0000
     13 C          -3.5620   -1.6033   -2.0757 C.ar    1  UNL1        0.0000
     14 C          -4.0345   -0.7316   -1.0579 C.ar    1  UNL1        0.0000
     15 C          -5.4738   -0.4078   -1.0240 C.ar    1  UNL1        0.0000
     16 C          -5.9859    0.3879   -0.0745 C.ar    1  UNL1        0.0000
     17 C          -5.1383    0.8626    0.9915 C.ar    1  UNL1        0.0000
     18 C          -5.6168    1.5141    2.0685 C.2     1  UNL1        0.0000
     19 SI         -4.2916    1.7558    3.3494 Si      1  UNL1        0.0000
     20 C          -3.1144    0.8501    2.2035 C.2     1  UNL1        0.0000
     21 C          -3.6844    0.5488    1.0154 C.ar    1  UNL1        0.0000
     22 C          -3.0649   -0.1752   -0.1538 C.ar    1  UNL1        0.0000
     23 C          -1.6358   -0.3259   -0.3761 C.ar    1  UNL1        0.0000
     24 C          -0.6290    0.4018    0.3076 C.ar    1  UNL1        0.0000
     25 C           0.7490    0.1960    0.1093 C.ar    1  UNL1        0.0000
     26 C           1.7901    0.9400    0.8310 C.ar    1  UNL1        0.0000
     27 C           1.6809    1.9118    1.7518 C.2     1  UNL1        0.0000
     28 C           5.0367   -0.7141   -0.7035 C.ar    1  UNL1        0.0000
     29 N           5.9517   -0.5485    0.2563 N.ar    1  UNL1        0.0000
     30 C           7.1865   -0.9117   -0.0789 C.ar    1  UNL1        0.0000
     31 N           7.5677   -1.4068   -1.2523 N.ar    1  UNL1        0.0000
     32 C           6.5755   -1.5301   -2.1281 C.ar    1  UNL1        0.0000
     33 N           5.3014   -1.2107   -1.9193 N.ar    1  UNL1        0.0000
     34 H           3.2120    2.1892    3.2372 H       1  UNL1        0.0000
     35 H           3.2021    3.4201    1.9387 H       1  UNL1        0.0000
     36 H           5.0178    1.5472    1.3710 H       1  UNL1        0.0000
     37 H           2.8721   -1.7703   -1.7896 H       1  UNL1        0.0000
     38 H           0.5668   -2.1518   -2.3403 H       1  UNL1        0.0000
     39 H          -6.1128   -0.8015   -1.8090 H       1  UNL1        0.0000
     40 H          -7.0431    0.6318   -0.0659 H       1  UNL1        0.0000
     41 H          -6.6402    1.7973    2.2575 H       1  UNL1        0.0000
     42 H          -4.5520    0.9991    4.5972 H       1  UNL1        0.0000
     43 H          -3.9107    3.1779    3.5249 H       1  UNL1        0.0000
     44 H          -2.1260    0.6235    2.5625 H       1  UNL1        0.0000
     45 H          -0.9142    1.2007    0.9821 H       1  UNL1        0.0000
     46 H           0.7693    2.3335    2.1440 H       1  UNL1        0.0000
     47 H           7.9551   -0.7922    0.6772 H       1  UNL1        0.0000
     48 H           6.8277   -1.9300   -3.1043 H       1  UNL1        0.0000
@<TRIPOS>BOND
     1     1     2    1
     2     2     3    2
     3     3     4   ar
     4     4     5   ar
     5     5     6   ar
     6     6     7   ar
     7     7     8   ar
     8     8     9   ar
     9     9    10   ar
    10    10    11   ar
    11    11    12   ar
    12    12    13   ar
    13    13    14   ar
    14    14    15   ar
    15    15    16   ar
    16    16    17   ar
    17    17    18    2
    18    18    19    1
    19    19    20    1
    20    20    21    2
    21    21    22   ar
    22    22    23   ar
    23    23    24   ar
    24    24    25   ar
    25    25    26   ar
    26    26    27    2
    27     4    28    1
    28    28    29   ar
    29    29    30   ar
    30    30    31   ar
    31    31    32   ar
    32    32    33   ar
    33    27     1    1
    34    33    28   ar
    35    26     3   ar
    36    25     6   ar
    37    23     8   ar
    38    13     9   ar
    39    22    14   ar
    40    21    17   ar
    41     1    34    1
    42     1    35    1
    43     2    36    1
    44     5    37    1
    45     7    38    1
    46    15    39    1
    47    16    40    1
    48    18    41    1
    49    19    42    1
    50    19    43    1
    51    20    44    1
    52    24    45    1
    53    27    46    1
    54    30    47    1
    55    32    48    1
