@<TRIPOS>MOLECULE
*****
 43 48 0 0 0
SMALL
GASTEIGER

@<TRIPOS>ATOM
      1 C          -1.8747   -3.5189   -1.0808 C.3     1  UNL1       -0.0148
      2 C          -2.8222   -2.4245   -0.6892 C.2     1  UNL1       -0.0720
      3 C          -2.1344   -1.3137   -0.3761 C.ar    1  UNL1       -0.0138
      4 C          -2.6296   -0.0127    0.0675 C.ar    1  UNL1       -0.0136
      5 C          -1.6956    0.9238    0.3610 C.ar    1  UNL1       -0.0460
      6 C          -0.2327    0.6918    0.2330 C.ar    1  UNL1       -0.0161
      7 C           0.6614    1.7192    0.5476 C.ar    1  UNL1       -0.0462
      8 C           2.0511    1.5395    0.4342 C.ar    1  UNL1       -0.0166
      9 C           2.9101    2.5945    0.7594 C.ar    1  UNL1       -0.0534
     10 C           4.2921    2.4523    0.6588 C.ar    1  UNL1       -0.0533
     11 C           4.8556    1.2482    0.2291 C.ar    1  UNL1       -0.0144
     12 C           6.2471    1.1197    0.1328 C.ar    1  UNL1       -0.0359
     13 C           6.7821   -0.0812   -0.2948 C.ar    1  UNL1        0.0281
     14 N           6.0364   -1.1478   -0.6284 N.ar    1  UNL1       -0.2626
     15 C           4.6913   -1.0001   -0.5275 C.ar    1  UNL1        0.0358
     16 C           4.0164    0.1620   -0.1077 C.ar    1  UNL1        0.0079
     17 C           2.5868    0.3027   -0.0058 C.ar    1  UNL1       -0.0081
     18 C           1.6626   -0.7260   -0.3199 C.ar    1  UNL1       -0.0451
     19 C           0.2770   -0.5452   -0.2059 C.ar    1  UNL1       -0.0098
     20 C          -0.7063   -1.5899   -0.5183 C.ar    1  UNL1       -0.0135
     21 C          -0.5363   -2.8575   -0.9287 C.2     1  UNL1       -0.0719
     22 C          -4.0312    0.3261    0.2169 C.2     1  UNL1       -0.0359
     23 C          -4.9963    0.2200   -0.7123 C.2     1  UNL1       -0.0580
     24 C          -6.2529    0.6519   -0.1573 C.2     1  UNL1       -0.0651
     25 C          -6.0718    1.0280    1.1163 C.2     1  UNL1       -0.0797
     26 C          -4.6258    0.8648    1.4941 C.3     1  UNL1       -0.0086
     27 H          -2.0432   -3.8361   -2.1141 H       1  UNL1        0.0350
     28 H          -1.9672   -4.3785   -0.4106 H       1  UNL1        0.0350
     29 H          -3.8949   -2.5388   -0.6637 H       1  UNL1        0.0581
     30 H          -1.9931    1.9161    0.6875 H       1  UNL1        0.0630
     31 H           0.2715    2.6777    0.8857 H       1  UNL1        0.0630
     32 H           2.5101    3.5487    1.0979 H       1  UNL1        0.0624
     33 H           4.9244    3.2982    0.9216 H       1  UNL1        0.0624
     34 H           6.9115    1.9395    0.3857 H       1  UNL1        0.0639
     35 H           7.8560   -0.2177   -0.3818 H       1  UNL1        0.0830
     36 H           4.1514   -1.8981   -0.8119 H       1  UNL1        0.0836
     37 H           2.0223   -1.6913   -0.6613 H       1  UNL1        0.0630
     38 H           0.4008   -3.3564   -1.1177 H       1  UNL1        0.0581
     39 H          -4.8736   -0.1298   -1.7265 H       1  UNL1        0.0620
     40 H          -7.1852    0.6611   -0.7013 H       1  UNL1        0.0615
     41 H          -6.8397    1.3953    1.7800 H       1  UNL1        0.0575
     42 H          -4.5173    0.1531    2.3186 H       1  UNL1        0.0356
     43 H          -4.1940    1.8298    1.7765 H       1  UNL1        0.0356
@<TRIPOS>BOND
     1     1     2    1
     2     2     3    2
     3     3     4   ar
     4     4     5   ar
     5     5     6   ar
     6     6     7   ar
     7     7     8   ar
     8     8     9   ar
     9     9    10   ar
    10    10    11   ar
    11    11    12   ar
    12    12    13   ar
    13    13    14   ar
    14    14    15   ar
    15    15    16   ar
    16    16    17   ar
    17    17    18   ar
    18    18    19   ar
    19    19    20   ar
    20    20    21    2
    21     4    22    1
    22    22    23    2
    23    23    24    1
    24    24    25    2
    25    25    26    1
    26    21     1    1
    27    26    22    1
    28    20     3   ar
    29    19     6   ar
    30    17     8   ar
    31    16    11   ar
    32     1    27    1
    33     1    28    1
    34     2    29    1
    35     5    30    1
    36     7    31    1
    37     9    32    1
    38    10    33    1
    39    12    34    1
    40    13    35    1
    41    15    36    1
    42    18    37    1
    43    21    38    1
    44    23    39    1
    45    24    40    1
    46    25    41    1
    47    26    42    1
    48    26    43    1
