@<TRIPOS>MOLECULE
*****
 38 43 0 0 0
SMALL
GASTEIGER

@<TRIPOS>ATOM
      1 C           2.0001    3.5285    0.0963 C.3     1  UNL1       -0.0148
      2 C           2.9512    2.3685    0.0760 C.2     1  UNL1       -0.0719
      3 C           2.2648    1.2187   -0.0281 C.ar    1  UNL1       -0.0129
      4 C           2.7575   -0.1515   -0.0797 C.ar    1  UNL1       -0.0018
      5 C           1.8381   -1.1431   -0.1552 C.ar    1  UNL1       -0.0451
      6 C           0.3730   -0.8872   -0.2018 C.ar    1  UNL1       -0.0147
      7 C          -0.5116   -1.9747   -0.2871 C.ar    1  UNL1       -0.0279
      8 C          -1.8869   -1.8014   -0.3372 C.ar    1  UNL1        0.0736
      9 N          -2.6790   -2.8828   -0.4178 N.ar    1  UNL1       -0.2542
     10 C          -4.0273   -2.7399   -0.4685 C.ar    1  UNL1        0.0374
     11 C          -4.6162   -1.4731   -0.4381 C.ar    1  UNL1        0.0184
     12 C          -5.9587   -1.0037   -0.4743 C.ar    1  UNL1       -0.0352
     13 C          -5.9238    0.3699   -0.4130 C.ar    1  UNL1        0.0028
     14 N          -4.6106    0.7524   -0.3408 N.ar    1  UNL1       -0.3601
     15 C          -3.7875   -0.3531   -0.3542 C.ar    1  UNL1        0.0572
     16 C          -2.3812   -0.4803   -0.3002 C.ar    1  UNL1        0.0249
     17 C          -1.5205    0.6342   -0.2148 C.ar    1  UNL1       -0.0423
     18 C          -0.1411    0.4312   -0.1651 C.ar    1  UNL1       -0.0097
     19 C           0.8369    1.5223   -0.0718 C.ar    1  UNL1       -0.0135
     20 C           0.6631    2.8523   -0.0037 C.2     1  UNL1       -0.0719
     21 C           4.1312   -0.5387   -0.0497 C.ar    1  UNL1        0.0394
     22 C           4.8534   -1.1904    0.9376 C.ar    1  UNL1        0.0425
     23 N           6.1853   -1.4386    0.6633 N.ar    1  UNL1       -0.2551
     24 C           6.4680   -0.9754   -0.5330 C.ar    1  UNL1        0.0652
     25 S           5.1820   -0.2289   -1.3834 S.2     1  UNL1       -0.0754
     26 H           2.1704    4.1935   -0.7553 H       1  UNL1        0.0350
     27 H           2.0868    4.0928    1.0294 H       1  UNL1        0.0350
     28 H           4.0241    2.4690    0.1391 H       1  UNL1        0.0581
     29 H           2.1443   -2.1857   -0.1996 H       1  UNL1        0.0630
     30 H          -0.1269   -2.9918   -0.3168 H       1  UNL1        0.0645
     31 H          -4.6041   -3.6556   -0.5329 H       1  UNL1        0.0836
     32 H          -6.8535   -1.6094   -0.5386 H       1  UNL1        0.0639
     33 H          -6.7170    1.1058   -0.4145 H       1  UNL1        0.0807
     34 H          -4.2896    1.7089   -0.2859 H       1  UNL1        0.1654
     35 H          -1.9236    1.6400   -0.1875 H       1  UNL1        0.0631
     36 H          -0.2753    3.3834   -0.0104 H       1  UNL1        0.0581
     37 H           4.4471   -1.5082    1.8907 H       1  UNL1        0.0841
     38 H           7.4570   -1.0578   -0.9644 H       1  UNL1        0.0907
@<TRIPOS>BOND
     1     1     2    1
     2     2     3    2
     3     3     4   ar
     4     4     5   ar
     5     5     6   ar
     6     6     7   ar
     7     7     8   ar
     8     8     9   ar
     9     9    10   ar
    10    10    11   ar
    11    11    12   ar
    12    12    13   ar
    13    13    14   ar
    14    14    15   ar
    15    15    16   ar
    16    16    17   ar
    17    17    18   ar
    18    18    19   ar
    19    19    20    2
    20     4    21    1
    21    21    22   ar
    22    22    23   ar
    23    23    24   ar
    24    24    25   ar
    25    20     1    1
    26    25    21   ar
    27    19     3   ar
    28    18     6   ar
    29    16     8   ar
    30    15    11   ar
    31     1    26    1
    32     1    27    1
    33     2    28    1
    34     5    29    1
    35     7    30    1
    36    10    31    1
    37    12    32    1
    38    13    33    1
    39    14    34    1
    40    17    35    1
    41    20    36    1
    42    22    37    1
    43    24    38    1
