@<TRIPOS>MOLECULE
*****
 50 57 0 0 0
SMALL
GASTEIGER

@<TRIPOS>ATOM
      1 C          -2.1213   -0.4866    3.3757 C.3     1  UNL1       -0.0148
      2 C          -2.9938   -0.4674    2.1643 C.2     1  UNL1       -0.0719
      3 C          -2.2316   -0.4074    1.0600 C.ar    1  UNL1       -0.0130
      4 C          -2.6619   -0.5060   -0.3230 C.ar    1  UNL1       -0.0030
      5 C          -1.6929   -0.6001   -1.2581 C.ar    1  UNL1       -0.0452
      6 C          -0.2448   -0.5494   -0.9299 C.ar    1  UNL1       -0.0161
      7 C           0.6574   -0.6946   -1.9765 C.ar    1  UNL1       -0.0534
      8 C           2.0269   -0.5902   -1.7424 C.ar    1  UNL1       -0.0528
      9 C           2.5655   -0.2783   -0.4775 C.ar    1  UNL1       -0.0089
     10 C           1.6403   -0.0536    0.5827 C.ar    1  UNL1       -0.0090
     11 C           2.1699    0.4635    1.7831 C.ar    1  UNL1       -0.0528
     12 C           3.5350    0.6765    1.9964 C.ar    1  UNL1       -0.0534
     13 C           4.4791    0.3732    1.0265 C.ar    1  UNL1       -0.0166
     14 C           5.8694    0.6025    1.3559 C.ar    1  UNL1       -0.0533
     15 C           6.9633    0.3460    0.5091 C.ar    1  UNL1       -0.0504
     16 C           6.5075   -0.1799   -0.6814 C.ar    1  UNL1        0.0205
     17 C           7.3030   -0.5888   -1.7165 C.ar    1  UNL1        0.0994
     18 O           6.5209   -1.1010   -2.7070 O.2     1  UNL1       -0.4698
     19 C           5.2205   -1.0104   -2.2904 C.ar    1  UNL1        0.1000
     20 C           5.1446   -0.4160   -1.0525 C.ar    1  UNL1        0.0281
     21 C           3.9976   -0.1347   -0.2338 C.ar    1  UNL1        0.0006
     22 C           0.2396   -0.2985    0.3820 C.ar    1  UNL1       -0.0027
     23 C          -0.8151   -0.3324    1.4368 C.ar    1  UNL1       -0.0129
     24 C          -0.7465   -0.4382    2.7774 C.2     1  UNL1       -0.0719
     25 C          -4.0220   -0.5022   -0.7628 C.ar    1  UNL1        0.0239
     26 S          -4.7469   -1.9153   -1.4824 S.2     1  UNL1       -0.0958
     27 C          -6.2821   -1.1511   -1.6905 C.ar    1  UNL1       -0.0163
     28 C          -6.2198    0.1215   -1.2155 C.ar    1  UNL1       -0.0142
     29 C          -7.1168    1.2118   -1.1036 C.2     1  UNL1       -0.0574
     30 C          -6.4760    2.2562   -0.5302 C.2     1  UNL1       -0.0791
     31 C          -5.0196    1.9057   -0.2023 C.3     1  UNL1       -0.0075
     32 C          -4.9631    0.4969   -0.6901 C.ar    1  UNL1       -0.0217
     33 H          -2.2662   -1.4070    3.9491 H       1  UNL1        0.0350
     34 H          -2.3062    0.3804    4.0162 H       1  UNL1        0.0350
     35 H          -4.0688   -0.5650    2.1913 H       1  UNL1        0.0581
     36 H          -1.9492   -0.6780   -2.3117 H       1  UNL1        0.0630
     37 H           0.3121   -0.8877   -2.9897 H       1  UNL1        0.0624
     38 H           2.6619   -0.6914   -2.6123 H       1  UNL1        0.0624
     39 H           1.5126    0.7846    2.5842 H       1  UNL1        0.0624
     40 H           3.8398    1.0899    2.9567 H       1  UNL1        0.0624
     41 H           6.1062    1.0048    2.3439 H       1  UNL1        0.0624
     42 H           7.9928    0.5199    0.7853 H       1  UNL1        0.0625
     43 H           8.3674   -0.6087   -1.9020 H       1  UNL1        0.1035
     44 H           4.5187   -1.4318   -2.9919 H       1  UNL1        0.1036
     45 H           0.1366   -0.5296    3.3869 H       1  UNL1        0.0581
     46 H          -7.1107   -1.6816   -2.1369 H       1  UNL1        0.0699
     47 H          -8.1474    1.2011   -1.4287 H       1  UNL1        0.0621
     48 H          -6.9162    3.2200   -0.3226 H       1  UNL1        0.0575
     49 H          -4.8384    1.9741    0.8737 H       1  UNL1        0.0356
     50 H          -4.3310    2.5546   -0.7504 H       1  UNL1        0.0356
@<TRIPOS>BOND
     1     1     2    1
     2     2     3    2
     3     3     4   ar
     4     4     5   ar
     5     5     6   ar
     6     6     7   ar
     7     7     8   ar
     8     8     9   ar
     9     9    10   ar
    10    10    11   ar
    11    11    12   ar
    12    12    13   ar
    13    13    14   ar
    14    14    15   ar
    15    15    16   ar
    16    16    17   ar
    17    17    18   ar
    18    18    19   ar
    19    19    20   ar
    20    20    21   ar
    21    10    22   ar
    22    22    23   ar
    23    23    24    2
    24     4    25    1
    25    25    26   ar
    26    26    27   ar
    27    27    28   ar
    28    28    29    1
    29    29    30    2
    30    30    31    1
    31    31    32    1
    32    24     1    1
    33    32    25   ar
    34    23     3   ar
    35    32    28   ar
    36    22     6   ar
    37    21     9   ar
    38    21    13   ar
    39    20    16   ar
    40     1    33    1
    41     1    34    1
    42     2    35    1
    43     5    36    1
    44     7    37    1
    45     8    38    1
    46    11    39    1
    47    12    40    1
    48    14    41    1
    49    15    42    1
    50    17    43    1
    51    19    44    1
    52    24    45    1
    53    27    46    1
    54    29    47    1
    55    30    48    1
    56    31    49    1
    57    31    50    1
