@<TRIPOS>MOLECULE
*****
 47 54 0 0 0
SMALL
GASTEIGER

@<TRIPOS>ATOM
      1 C           2.3111    0.9437    3.5214 C.3     1  UNL1        0.0000
      2 C           3.2196    0.7967    2.3458 C.2     1  UNL1        0.0000
      3 C           2.4935    0.5767    1.2376 C.ar    1  UNL1        0.0000
      4 C           2.9764    0.3782   -0.1195 C.ar    1  UNL1        0.0000
      5 C           2.0525    0.1836   -1.0854 C.ar    1  UNL1        0.0000
      6 C           0.5926    0.1631   -0.8139 C.ar    1  UNL1        0.0000
      7 C          -0.2642   -0.0453   -1.8841 C.ar    1  UNL1        0.0000
      8 C          -1.6433   -0.0775   -1.6856 C.ar    1  UNL1        0.0000
      9 C          -2.2260    0.0971   -0.4034 C.ar    1  UNL1        0.0000
     10 C          -1.3453    0.3090    0.6831 C.ar    1  UNL1        0.0000
     11 S          -2.2530    0.4945    2.1429 S.2     1  UNL1        0.0000
     12 C          -3.7509    0.3062    1.3847 C.ar    1  UNL1        0.0000
     13 C          -4.9707    0.3657    2.1303 C.ar    1  UNL1        0.0000
     14 C          -6.1308    0.2082    1.4688 C.ar    1  UNL1        0.0000
     15 C          -6.1216   -0.0154    0.0333 C.ar    1  UNL1        0.0000
     16 C          -7.2412   -0.1814   -0.6965 C.2     1  UNL1        0.0000
     17 SI         -6.8337   -0.4426   -2.4942 Si      1  UNL1        0.0000
     18 C          -5.0187   -0.2894   -2.0546 C.2     1  UNL1        0.0000
     19 C          -4.8399   -0.0757   -0.7361 C.ar    1  UNL1        0.0000
     20 C          -3.6142    0.0991    0.0188 C.ar    1  UNL1        0.0000
     21 C           0.0692    0.3460    0.4955 C.ar    1  UNL1        0.0000
     22 C           1.0628    0.5651    1.5753 C.ar    1  UNL1        0.0000
     23 C           0.9563    0.7771    2.8999 C.2     1  UNL1        0.0000
     24 C           4.3442    0.3621   -0.5086 C.ar    1  UNL1        0.0000
     25 S           5.1354    1.6818   -1.2940 S.2     1  UNL1        0.0000
     26 C           6.6501    0.8621   -1.3588 C.ar    1  UNL1        0.0000
     27 C           6.4909   -0.3531   -0.7893 C.ar    1  UNL1        0.0000
     28 C           7.3690   -1.4394   -0.5611 C.ar    1  UNL1        0.0000
     29 C           6.7350   -2.5122    0.0767 C.ar    1  UNL1        0.0000
     30 S           5.0294   -2.3004    0.4532 S.2     1  UNL1        0.0000
     31 C           5.2224   -0.6696   -0.3027 C.ar    1  UNL1        0.0000
     32 H           2.5004    0.1670    4.2680 H       1  UNL1        0.0000
     33 H           2.4148    1.9308    3.9811 H       1  UNL1        0.0000
     34 H           4.2955    0.8602    2.4027 H       1  UNL1        0.0000
     35 H           2.3571    0.0242   -2.1167 H       1  UNL1        0.0000
     36 H           0.1219   -0.1869   -2.8909 H       1  UNL1        0.0000
     37 H          -2.2648   -0.2438   -2.5570 H       1  UNL1        0.0000
     38 H          -4.9568    0.5337    3.2023 H       1  UNL1        0.0000
     39 H          -7.0792    0.2459    1.9935 H       1  UNL1        0.0000
     40 H          -8.2600   -0.1736   -0.3430 H       1  UNL1        0.0000
     41 H          -7.1835   -1.8033   -2.9672 H       1  UNL1        0.0000
     42 H          -7.2990    0.6725   -3.3531 H       1  UNL1        0.0000
     43 H          -4.2898   -0.3770   -2.8365 H       1  UNL1        0.0000
     44 H           0.0613    0.8339    3.4937 H       1  UNL1        0.0000
     45 H           7.5244    1.3213   -1.7977 H       1  UNL1        0.0000
     46 H           8.4158   -1.4647   -0.8381 H       1  UNL1        0.0000
     47 H           7.1850   -3.4541    0.3597 H       1  UNL1        0.0000
@<TRIPOS>BOND
     1     1     2    1
     2     2     3    2
     3     3     4   ar
     4     4     5   ar
     5     5     6   ar
     6     6     7   ar
     7     7     8   ar
     8     8     9   ar
     9     9    10   ar
    10    10    11   ar
    11    11    12   ar
    12    12    13   ar
    13    13    14   ar
    14    14    15   ar
    15    15    16    2
    16    16    17    1
    17    17    18    1
    18    18    19    2
    19    19    20   ar
    20    10    21   ar
    21    21    22   ar
    22    22    23    2
    23     4    24    1
    24    24    25   ar
    25    25    26   ar
    26    26    27   ar
    27    27    28   ar
    28    28    29   ar
    29    29    30   ar
    30    30    31   ar
    31    23     1    1
    32    31    24   ar
    33    22     3   ar
    34    31    27   ar
    35    21     6   ar
    36    20     9   ar
    37    20    12   ar
    38    19    15   ar
    39     1    32    1
    40     1    33    1
    41     2    34    1
    42     5    35    1
    43     7    36    1
    44     8    37    1
    45    13    38    1
    46    14    39    1
    47    16    40    1
    48    17    41    1
    49    17    42    1
    50    18    43    1
    51    23    44    1
    52    26    45    1
    53    28    46    1
    54    29    47    1
