@<TRIPOS>MOLECULE
*****
 45 51 0 0 0
SMALL
GASTEIGER

@<TRIPOS>ATOM
      1 C          -2.0454   -1.7161   -2.7158 C.3     1  UNL1        0.0000
      2 C          -3.0347   -0.9994   -1.8522 C.2     1  UNL1        0.0000
      3 C          -2.3880   -0.3315   -0.8819 C.ar    1  UNL1        0.0000
      4 C          -2.9291    0.6387    0.0591 C.ar    1  UNL1        0.0000
      5 C          -2.0299    1.3957    0.7262 C.ar    1  UNL1        0.0000
      6 C          -0.5593    1.1978    0.6163 C.ar    1  UNL1        0.0000
      7 C           0.2772    2.0972    1.2767 C.ar    1  UNL1        0.0000
      8 C           1.6628    1.9208    1.2731 C.ar    1  UNL1        0.0000
      9 C           2.2747    0.7877    0.7079 C.ar    1  UNL1        0.0000
     10 C           3.7122    0.6029    0.7835 C.ar    1  UNL1        0.0000
     11 SI          5.0600    1.7734    1.4879 Si      1  UNL1        0.0000
     12 C           6.3715    0.4893    1.0793 C.2     1  UNL1        0.0000
     13 C           5.8685   -0.6211    0.5119 C.2     1  UNL1        0.0000
     14 C           4.4227   -0.5567    0.3469 C.ar    1  UNL1        0.0000
     15 C           3.5646   -1.5264   -0.1268 C.ar    1  UNL1        0.0000
     16 C           3.8737   -2.8041   -0.5080 C.ar    1  UNL1        0.0000
     17 O           2.7234   -3.4812   -0.7886 O.2     1  UNL1        0.0000
     18 C           1.6832   -2.6175   -0.5875 C.ar    1  UNL1        0.0000
     19 C           2.1468   -1.3681   -0.2508 C.ar    1  UNL1        0.0000
     20 C           1.4001   -0.1868    0.0797 C.ar    1  UNL1        0.0000
     21 C           0.0020    0.0990   -0.0839 C.ar    1  UNL1        0.0000
     22 C          -0.9495   -0.5922   -0.9844 C.ar    1  UNL1        0.0000
     23 C          -0.7396   -1.3288   -2.0897 C.2     1  UNL1        0.0000
     24 C          -4.3094    0.8843    0.3147 C.ar    1  UNL1        0.0000
     25 C          -5.0855    2.0240    0.4222 C.ar    1  UNL1        0.0000
     26 C          -6.4122    1.6206    0.7106 C.ar    1  UNL1        0.0000
     27 C          -6.4147    0.2465    0.7830 C.ar    1  UNL1        0.0000
     28 N          -5.1370   -0.1907    0.5473 N.ar    1  UNL1        0.0000
     29 H          -2.1965   -2.7989   -2.6857 H       1  UNL1        0.0000
     30 H          -2.1023   -1.3635   -3.7499 H       1  UNL1        0.0000
     31 H          -4.0917   -0.9502   -2.0662 H       1  UNL1        0.0000
     32 H          -2.3604    2.1553    1.4298 H       1  UNL1        0.0000
     33 H          -0.1378    2.9601    1.7938 H       1  UNL1        0.0000
     34 H           2.2496    2.6823    1.7814 H       1  UNL1        0.0000
     35 H           5.2070    3.0083    0.6782 H       1  UNL1        0.0000
     36 H           4.9073    1.9825    2.9494 H       1  UNL1        0.0000
     37 H           7.4108    0.6760    1.3028 H       1  UNL1        0.0000
     38 H           6.4550   -1.4760    0.2062 H       1  UNL1        0.0000
     39 H           4.7846   -3.3796   -0.5897 H       1  UNL1        0.0000
     40 H           0.7071   -3.0644   -0.7039 H       1  UNL1        0.0000
     41 H           0.2127   -1.5787   -2.5304 H       1  UNL1        0.0000
     42 H          -4.7339    3.0399    0.2962 H       1  UNL1        0.0000
     43 H          -7.2706    2.2642    0.8519 H       1  UNL1        0.0000
     44 H          -7.2112   -0.4570    0.9845 H       1  UNL1        0.0000
     45 H          -4.8390   -1.1575    0.5514 H       1  UNL1        0.0000
@<TRIPOS>BOND
     1     1     2    1
     2     2     3    2
     3     3     4   ar
     4     4     5   ar
     5     5     6   ar
     6     6     7   ar
     7     7     8   ar
     8     8     9   ar
     9     9    10   ar
    10    10    11    1
    11    11    12    1
    12    12    13    2
    13    13    14    1
    14    14    15   ar
    15    15    16   ar
    16    16    17   ar
    17    17    18   ar
    18    18    19   ar
    19    19    20   ar
    20    20    21   ar
    21    21    22   ar
    22    22    23    2
    23     4    24    1
    24    24    25   ar
    25    25    26   ar
    26    26    27   ar
    27    27    28   ar
    28    23     1    1
    29    28    24   ar
    30    22     3   ar
    31    21     6   ar
    32    20     9   ar
    33    14    10   ar
    34    19    15   ar
    35     1    29    1
    36     1    30    1
    37     2    31    1
    38     5    32    1
    39     7    33    1
    40     8    34    1
    41    11    35    1
    42    11    36    1
    43    12    37    1
    44    13    38    1
    45    16    39    1
    46    18    40    1
    47    23    41    1
    48    25    42    1
    49    26    43    1
    50    27    44    1
    51    28    45    1
