@<TRIPOS>MOLECULE
*****
 43 49 0 0 0
SMALL
GASTEIGER

@<TRIPOS>ATOM
      1 C           0.5876    0.8056   -3.2336 C.3     1  UNL1        0.0000
      2 C           1.6245    0.2418   -2.3077 C.2     1  UNL1        0.0000
      3 C           1.0443   -0.1485   -1.1610 C.ar    1  UNL1        0.0000
      4 C           1.6519   -0.7525    0.0187 C.ar    1  UNL1        0.0000
      5 C           0.8401   -1.0700    1.0557 C.ar    1  UNL1        0.0000
      6 C          -0.6292   -0.8363    1.0328 C.ar    1  UNL1        0.0000
      7 C          -1.4030   -1.2003    2.1423 C.ar    1  UNL1        0.0000
      8 C          -2.7901   -0.9907    2.1616 C.ar    1  UNL1        0.0000
      9 C          -3.4076   -0.4036    1.0447 C.ar    1  UNL1        0.0000
     10 C          -4.7105   -0.0416    0.6872 C.ar    1  UNL1        0.0000
     11 C          -6.1046   -0.0367    1.1760 C.3     1  UNL1        0.0000
     12 C          -6.8065    0.6059   -0.0370 C.2     1  UNL1        0.0000
     13 C          -5.9376    0.9055   -1.0321 C.2     1  UNL1        0.0000
     14 C          -4.6694    0.5042   -0.5722 C.ar    1  UNL1        0.0000
     15 O          -3.4086    0.5149   -1.0492 O.2     1  UNL1        0.0000
     16 C          -2.6221   -0.0422   -0.0631 C.ar    1  UNL1        0.0000
     17 C          -1.2400   -0.2433   -0.1028 C.ar    1  UNL1        0.0000
     18 C          -0.3915    0.1156   -1.2390 C.ar    1  UNL1        0.0000
     19 C          -0.6716    0.6699   -2.4294 C.2     1  UNL1        0.0000
     20 C           3.0508   -0.9917    0.1814 C.ar    1  UNL1        0.0000
     21 S           3.7050   -2.5990    0.0570 S.2     1  UNL1        0.0000
     22 C           5.3266   -2.0711    0.3362 C.ar    1  UNL1        0.0000
     23 C           5.3699   -0.7155    0.5119 C.ar    1  UNL1        0.0000
     24 C           6.4729    0.1597    0.7646 C.2     1  UNL1        0.0000
     25 C           6.1450    1.4650    0.8853 C.2     1  UNL1        0.0000
     26 SI          4.2538    1.7339    0.6720 Si      1  UNL1        0.0000
     27 C           4.0826   -0.1267    0.4181 C.ar    1  UNL1        0.0000
     28 H           0.7956    1.8539   -3.4668 H       1  UNL1        0.0000
     29 H           0.5284    0.2257   -4.1592 H       1  UNL1        0.0000
     30 H           2.6736    0.1629   -2.5498 H       1  UNL1        0.0000
     31 H           1.2466   -1.5086    1.9634 H       1  UNL1        0.0000
     32 H          -0.9344   -1.6558    3.0126 H       1  UNL1        0.0000
     33 H          -3.3742   -1.2802    3.0304 H       1  UNL1        0.0000
     34 H          -6.2284    0.5835    2.0678 H       1  UNL1        0.0000
     35 H          -6.4848   -1.0464    1.3528 H       1  UNL1        0.0000
     36 H          -7.8709    0.7879   -0.0710 H       1  UNL1        0.0000
     37 H          -6.1477    1.3575   -1.9882 H       1  UNL1        0.0000
     38 H          -1.6451    0.9732   -2.7824 H       1  UNL1        0.0000
     39 H           6.1359   -2.7872    0.3503 H       1  UNL1        0.0000
     40 H           7.4892   -0.2070    0.8507 H       1  UNL1        0.0000
     41 H           6.8012    2.2988    1.0747 H       1  UNL1        0.0000
     42 H           3.6627    2.2401    1.9363 H       1  UNL1        0.0000
     43 H           3.9897    2.5494   -0.5401 H       1  UNL1        0.0000
@<TRIPOS>BOND
     1     1     2    1
     2     2     3    2
     3     3     4   ar
     4     4     5   ar
     5     5     6   ar
     6     6     7   ar
     7     7     8   ar
     8     8     9   ar
     9     9    10   ar
    10    10    11    1
    11    11    12    1
    12    12    13    2
    13    13    14    1
    14    14    15   ar
    15    15    16   ar
    16    16    17   ar
    17    17    18   ar
    18    18    19    2
    19     4    20    1
    20    20    21   ar
    21    21    22   ar
    22    22    23   ar
    23    23    24    1
    24    24    25    2
    25    25    26    1
    26    26    27    1
    27    19     1    1
    28    27    20   ar
    29    18     3   ar
    30    27    23   ar
    31    17     6   ar
    32    16     9   ar
    33    14    10   ar
    34     1    28    1
    35     1    29    1
    36     2    30    1
    37     5    31    1
    38     7    32    1
    39     8    33    1
    40    11    34    1
    41    11    35    1
    42    12    36    1
    43    13    37    1
    44    19    38    1
    45    22    39    1
    46    24    40    1
    47    25    41    1
    48    26    42    1
    49    26    43    1
