@<TRIPOS>MOLECULE
*****
 42 48 0 0 0
SMALL
GASTEIGER

@<TRIPOS>ATOM
      1 C          -0.8821   -1.9773   -2.9877 C.3     1  UNL1       -0.0148
      2 C          -1.9714   -1.4199   -2.1332 C.2     1  UNL1       -0.0719
      3 C          -1.4393   -0.8317   -1.0493 C.ar    1  UNL1       -0.0130
      4 C          -2.1286   -0.0671   -0.0263 C.ar    1  UNL1       -0.0027
      5 C          -1.3624    0.5763    0.8795 C.ar    1  UNL1       -0.0452
      6 C           0.1202    0.4709    0.9102 C.ar    1  UNL1       -0.0161
      7 C           0.7883    1.2120    1.8933 C.ar    1  UNL1       -0.0533
      8 C           2.1649    1.1122    2.0305 C.ar    1  UNL1       -0.0499
      9 C           2.8803    0.2195    1.2181 C.ar    1  UNL1        0.0256
     10 C           4.2707    0.0928    1.4202 C.ar    1  UNL1        0.1425
     11 O           5.0309    0.7942    2.3161 O.2     1  UNL1       -0.4623
     12 C           6.3104    0.3608    2.1825 C.ar    1  UNL1        0.0932
     13 C           6.3919   -0.6157    1.2182 C.ar    1  UNL1       -0.0161
     14 C           5.0750   -0.7959    0.7198 C.ar    1  UNL1        0.0207
     15 C           4.4716   -1.6264   -0.2311 C.ar    1  UNL1       -0.0504
     16 C           3.0856   -1.5079   -0.4547 C.ar    1  UNL1       -0.0526
     17 C           2.2542   -0.5732    0.2193 C.ar    1  UNL1       -0.0061
     18 C           0.8480   -0.3794    0.0162 C.ar    1  UNL1       -0.0026
     19 C           0.0215   -0.9799   -1.0692 C.ar    1  UNL1       -0.0129
     20 C           0.3494   -1.5971   -2.2198 C.2     1  UNL1       -0.0719
     21 C          -3.5424    0.1005    0.0749 C.ar    1  UNL1        0.0281
     22 S          -4.5662   -1.2050    0.5851 S.2     1  UNL1       -0.0949
     23 C          -6.0071   -0.2674    0.4632 C.ar    1  UNL1       -0.0094
     24 C          -5.7165    0.9986    0.0457 C.ar    1  UNL1        0.0269
     25 S          -6.7818    2.4158   -0.2674 S.2     1  UNL1       -0.0961
     26 C          -5.2912    3.2481   -0.6944 C.ar    1  UNL1       -0.0231
     27 C          -4.1132    2.4980   -0.5980 C.ar    1  UNL1       -0.0459
     28 C          -4.3489    1.1685   -0.1585 C.ar    1  UNL1        0.0040
     29 H          -0.9676   -3.0630   -3.0881 H       1  UNL1        0.0350
     30 H          -0.8840   -1.5136   -3.9786 H       1  UNL1        0.0350
     31 H          -3.0179   -1.4460   -2.3970 H       1  UNL1        0.0581
     32 H          -1.8214    1.1793    1.6593 H       1  UNL1        0.0630
     33 H           0.2425    1.8720    2.5636 H       1  UNL1        0.0624
     34 H           2.6710    1.7000    2.7933 H       1  UNL1        0.0625
     35 H           7.0327    0.8327    2.8340 H       1  UNL1        0.1030
     36 H           7.2879   -1.1376    0.9147 H       1  UNL1        0.0655
     37 H           5.0525   -2.3616   -0.7803 H       1  UNL1        0.0625
     38 H           2.6599   -2.2186   -1.1536 H       1  UNL1        0.0624
     39 H           1.3319   -1.7844   -2.6156 H       1  UNL1        0.0581
     40 H          -6.9825   -0.6718    0.6955 H       1  UNL1        0.0705
     41 H          -5.3768    4.2806   -1.0050 H       1  UNL1        0.0694
     42 H          -3.1399    2.9078   -0.8405 H       1  UNL1        0.0629
@<TRIPOS>BOND
     1     1     2    1
     2     2     3    2
     3     3     4   ar
     4     4     5   ar
     5     5     6   ar
     6     6     7   ar
     7     7     8   ar
     8     8     9   ar
     9     9    10   ar
    10    10    11   ar
    11    11    12   ar
    12    12    13   ar
    13    13    14   ar
    14    14    15   ar
    15    15    16   ar
    16    16    17   ar
    17    17    18   ar
    18    18    19   ar
    19    19    20    2
    20     4    21    1
    21    21    22   ar
    22    22    23   ar
    23    23    24   ar
    24    24    25   ar
    25    25    26   ar
    26    26    27   ar
    27    27    28   ar
    28    20     1    1
    29    28    21   ar
    30    19     3   ar
    31    28    24   ar
    32    18     6   ar
    33    17     9   ar
    34    14    10   ar
    35     1    29    1
    36     1    30    1
    37     2    31    1
    38     5    32    1
    39     7    33    1
    40     8    34    1
    41    12    35    1
    42    13    36    1
    43    15    37    1
    44    16    38    1
    45    20    39    1
    46    23    40    1
    47    26    41    1
    48    27    42    1
