@<TRIPOS>MOLECULE
*****
 42 48 0 0 0
SMALL
GASTEIGER

@<TRIPOS>ATOM
      1 SI         -1.9138   -3.7860   -0.4516 Si      1  UNL1        0.0000
      2 C          -2.9170   -2.2606   -0.1356 C.2     1  UNL1        0.0000
      3 C          -2.1378   -1.1716    0.0401 C.ar    1  UNL1        0.0000
      4 C          -2.6593    0.1936    0.1318 C.ar    1  UNL1        0.0000
      5 C          -1.7754    1.2117    0.0772 C.ar    1  UNL1        0.0000
      6 C          -0.3274    0.9775    0.0477 C.ar    1  UNL1        0.0000
      7 C           0.5980    2.0154   -0.0256 C.ar    1  UNL1        0.0000
      8 C           0.3434    3.3526   -0.1981 C.ar    1  UNL1        0.0000
      9 O           1.5148    4.0441   -0.2276 O.2     1  UNL1        0.0000
     10 C           2.5238    3.1393   -0.0639 C.ar    1  UNL1        0.0000
     11 C           2.0178    1.8670    0.0636 C.ar    1  UNL1        0.0000
     12 C           2.6849    0.6482    0.2952 C.ar    1  UNL1        0.0000
     13 C           4.0915    0.4689    0.4432 C.ar    1  UNL1        0.0000
     14 S           5.3952    1.6015    0.2776 S.2     1  UNL1        0.0000
     15 C           6.5900    0.4511    0.6347 C.ar    1  UNL1        0.0000
     16 C           6.0450   -0.7807    0.8875 C.ar    1  UNL1        0.0000
     17 C           4.6132   -0.7889    0.7781 C.ar    1  UNL1        0.0000
     18 C           3.7138   -1.8505    0.9863 C.ar    1  UNL1        0.0000
     19 C           2.3362   -1.6707    0.8121 C.ar    1  UNL1        0.0000
     20 C           1.7570   -0.4590    0.4057 C.ar    1  UNL1        0.0000
     21 C           0.3057   -0.3040    0.1703 C.ar    1  UNL1        0.0000
     22 C          -0.6692   -1.4417    0.0056 C.ar    1  UNL1        0.0000
     23 C          -0.3841   -2.7173   -0.3396 C.2     1  UNL1        0.0000
     24 C          -4.0443    0.5510    0.2156 C.ar    1  UNL1        0.0000
     25 C          -4.8650    1.0981   -0.7569 C.ar    1  UNL1        0.0000
     26 C          -6.1950    1.3230   -0.2974 C.ar    1  UNL1        0.0000
     27 C          -6.3552    0.9442    1.0154 C.ar    1  UNL1        0.0000
     28 S          -4.9116    0.3222    1.6862 S.2     1  UNL1        0.0000
     29 H          -2.1128   -4.3364   -1.8138 H       1  UNL1        0.0000
     30 H          -1.9871   -4.7706    0.6544 H       1  UNL1        0.0000
     31 H          -3.9944   -2.2883   -0.1856 H       1  UNL1        0.0000
     32 H          -2.1225    2.2391    0.1208 H       1  UNL1        0.0000
     33 H          -0.5463    3.9542   -0.3183 H       1  UNL1        0.0000
     34 H           3.5063    3.5851   -0.0562 H       1  UNL1        0.0000
     35 H           7.6350    0.7290    0.6482 H       1  UNL1        0.0000
     36 H           6.6400   -1.6489    1.1433 H       1  UNL1        0.0000
     37 H           4.0871   -2.8244    1.2955 H       1  UNL1        0.0000
     38 H           1.7151   -2.5239    1.0681 H       1  UNL1        0.0000
     39 H           0.5692   -3.1589   -0.5719 H       1  UNL1        0.0000
     40 H          -4.5214    1.3223   -1.7599 H       1  UNL1        0.0000
     41 H          -6.9920    1.7410   -0.8999 H       1  UNL1        0.0000
     42 H          -7.2515    1.0022    1.6174 H       1  UNL1        0.0000
@<TRIPOS>BOND
     1     1     2    1
     2     2     3    2
     3     3     4   ar
     4     4     5   ar
     5     5     6   ar
     6     6     7   ar
     7     7     8   ar
     8     8     9   ar
     9     9    10   ar
    10    10    11   ar
    11    11    12   ar
    12    12    13   ar
    13    13    14   ar
    14    14    15   ar
    15    15    16   ar
    16    16    17   ar
    17    17    18   ar
    18    18    19   ar
    19    19    20   ar
    20    20    21   ar
    21    21    22   ar
    22    22    23    2
    23     4    24    1
    24    24    25   ar
    25    25    26   ar
    26    26    27   ar
    27    27    28   ar
    28    23     1    1
    29    28    24   ar
    30    22     3   ar
    31    21     6   ar
    32    11     7   ar
    33    20    12   ar
    34    17    13   ar
    35     1    29    1
    36     1    30    1
    37     2    31    1
    38     5    32    1
    39     8    33    1
    40    10    34    1
    41    15    35    1
    42    16    36    1
    43    18    37    1
    44    19    38    1
    45    23    39    1
    46    25    40    1
    47    26    41    1
    48    27    42    1
