@<TRIPOS>MOLECULE
*****
 46 52 0 0 0
SMALL
GASTEIGER

@<TRIPOS>ATOM
      1 C           1.6372    2.7330   -1.3777 C.3     1  UNL1       -0.0148
      2 C           2.6870    1.7512   -0.9636 C.2     1  UNL1       -0.0720
      3 C           2.1089    0.6973   -0.3645 C.ar    1  UNL1       -0.0138
      4 C           2.7503   -0.4086    0.3271 C.ar    1  UNL1       -0.0136
      5 C           1.9386   -1.2394    1.0175 C.ar    1  UNL1       -0.0460
      6 C           0.4583   -1.0979    1.0505 C.ar    1  UNL1       -0.0161
      7 C          -0.2577   -1.9451    1.9017 C.ar    1  UNL1       -0.0534
      8 C          -1.6462   -1.8743    1.9586 C.ar    1  UNL1       -0.0523
      9 C          -2.3516   -1.0362    1.0856 C.ar    1  UNL1       -0.0024
     10 C          -3.8325   -0.9079    1.1459 C.ar    1  UNL1        0.0276
     11 S          -4.8124   -1.5775    2.3788 S.2     1  UNL1       -0.0960
     12 C          -6.2407   -0.9224    1.7005 C.ar    1  UNL1       -0.0231
     13 C          -5.9889   -0.2029    0.5531 C.ar    1  UNL1       -0.0464
     14 C          -4.6029   -0.1939    0.2412 C.ar    1  UNL1       -0.0028
     15 C          -3.9443    0.4012   -0.8680 C.ar    1  UNL1       -0.0130
     16 C          -4.4588    0.9339   -1.9855 C.2     1  UNL1       -0.0719
     17 C          -3.3523    1.2122   -2.9535 C.3     1  UNL1       -0.0148
     18 C          -2.1436    0.7347   -2.2037 C.2     1  UNL1       -0.0719
     19 C          -2.4809    0.3420   -0.9609 C.ar    1  UNL1       -0.0129
     20 C          -1.6376   -0.2538    0.1180 C.ar    1  UNL1       -0.0011
     21 C          -0.2290   -0.1656    0.2197 C.ar    1  UNL1       -0.0021
     22 C           0.6523    0.8528   -0.4012 C.ar    1  UNL1       -0.0129
     23 C           0.3781    2.0661   -0.9128 C.2     1  UNL1       -0.0719
     24 C           4.1735   -0.6577    0.3435 C.2     1  UNL1       -0.0359
     25 C           4.8373   -1.6276   -0.3066 C.2     1  UNL1       -0.0580
     26 C           6.2428   -1.5285   -0.0076 C.2     1  UNL1       -0.0651
     27 C           6.4501   -0.5012    0.8288 C.2     1  UNL1       -0.0797
     28 C           5.1424    0.1713    1.1446 C.3     1  UNL1       -0.0086
     29 H           1.6320    2.8801   -2.4615 H       1  UNL1        0.0350
     30 H           1.7800    3.6941   -0.8750 H       1  UNL1        0.0350
     31 H           3.7465    1.9211   -1.0749 H       1  UNL1        0.0581
     32 H           2.3580   -2.0753    1.5716 H       1  UNL1        0.0630
     33 H           0.2595   -2.6445    2.5546 H       1  UNL1        0.0624
     34 H          -2.1630   -2.5076    2.6746 H       1  UNL1        0.0624
     35 H          -7.1959   -1.0985    2.1754 H       1  UNL1        0.0694
     36 H          -6.7645    0.2843   -0.0238 H       1  UNL1        0.0629
     37 H          -5.5066    1.0569   -2.2106 H       1  UNL1        0.0581
     38 H          -3.2809    2.2788   -3.1849 H       1  UNL1        0.0350
     39 H          -3.4886    0.6421   -3.8772 H       1  UNL1        0.0350
     40 H          -1.1588    0.7027   -2.6435 H       1  UNL1        0.0581
     41 H          -0.5909    2.5351   -0.9775 H       1  UNL1        0.0581
     42 H           4.4068   -2.3743   -0.9568 H       1  UNL1        0.0620
     43 H           6.9957   -2.1914   -0.4061 H       1  UNL1        0.0615
     44 H           7.4066   -0.1924    1.2223 H       1  UNL1        0.0575
     45 H           5.1592    1.2163    0.8222 H       1  UNL1        0.0356
     46 H           4.9275    0.1177    2.2166 H       1  UNL1        0.0356
@<TRIPOS>BOND
     1     1     2    1
     2     2     3    2
     3     3     4   ar
     4     4     5   ar
     5     5     6   ar
     6     6     7   ar
     7     7     8   ar
     8     8     9   ar
     9     9    10   ar
    10    10    11   ar
    11    11    12   ar
    12    12    13   ar
    13    13    14   ar
    14    14    15   ar
    15    15    16    2
    16    16    17    1
    17    17    18    1
    18    18    19    2
    19    19    20   ar
    20    20    21   ar
    21    21    22   ar
    22    22    23    2
    23     4    24    1
    24    24    25    2
    25    25    26    1
    26    26    27    2
    27    27    28    1
    28    23     1    1
    29    28    24    1
    30    22     3   ar
    31    21     6   ar
    32    20     9   ar
    33    14    10   ar
    34    19    15   ar
    35     1    29    1
    36     1    30    1
    37     2    31    1
    38     5    32    1
    39     7    33    1
    40     8    34    1
    41    12    35    1
    42    13    36    1
    43    16    37    1
    44    17    38    1
    45    17    39    1
    46    18    40    1
    47    23    41    1
    48    25    42    1
    49    26    43    1
    50    27    44    1
    51    28    45    1
    52    28    46    1
