@<TRIPOS>MOLECULE
*****
 33 37 0 0 0
SMALL
GASTEIGER

@<TRIPOS>ATOM
      1 C           0.5442    1.4293    2.9427 C.3     1  UNL1       -0.0148
      2 C           1.6416    1.0321    2.0090 C.2     1  UNL1       -0.0719
      3 C           1.1175    0.4974    0.8941 C.ar    1  UNL1       -0.0129
      4 C           1.8176   -0.0312   -0.2685 C.ar    1  UNL1       -0.0018
      5 C           1.0702   -0.5573   -1.2651 C.ar    1  UNL1       -0.0451
      6 C          -0.4151   -0.5977   -1.2268 C.ar    1  UNL1       -0.0147
      7 C          -1.0948   -1.1565   -2.3117 C.ar    1  UNL1       -0.0533
      8 C          -2.4906   -1.2116   -2.3282 C.ar    1  UNL1       -0.0520
      9 C          -3.2232   -0.6951   -1.2431 C.ar    1  UNL1        0.0003
     10 C          -4.6171   -0.6041   -0.9751 C.ar    1  UNL1       -0.0366
     11 C          -4.7660    0.0034    0.2465 C.ar    1  UNL1        0.0027
     12 N          -3.5147    0.2827    0.7265 N.ar    1  UNL1       -0.3602
     13 C          -2.5401   -0.1341   -0.1548 C.ar    1  UNL1        0.0548
     14 C          -1.1328   -0.0746   -0.1141 C.ar    1  UNL1        0.0134
     15 C          -0.3473    0.4888    0.9980 C.ar    1  UNL1       -0.0115
     16 C          -0.6871    1.0266    2.1828 C.2     1  UNL1       -0.0719
     17 C           3.2346   -0.0521   -0.4406 C.ar    1  UNL1        0.0394
     18 C           4.1234   -1.1139   -0.3899 C.ar    1  UNL1        0.0425
     19 N           5.4545   -0.8125   -0.6101 N.ar    1  UNL1       -0.2551
     20 C           5.5693    0.4782   -0.8265 C.ar    1  UNL1        0.0652
     21 S           4.1195    1.3897   -0.7806 S.2     1  UNL1       -0.0754
     22 H           0.6159    0.8873    3.8902 H       1  UNL1        0.0350
     23 H           0.5555    2.5066    3.1319 H       1  UNL1        0.0350
     24 H           2.6916    1.1614    2.2239 H       1  UNL1        0.0581
     25 H           1.5400   -0.9657   -2.1564 H       1  UNL1        0.0630
     26 H          -0.5491   -1.5571   -3.1627 H       1  UNL1        0.0624
     27 H          -3.0074   -1.6488   -3.1781 H       1  UNL1        0.0624
     28 H          -5.4210   -0.9465   -1.6134 H       1  UNL1        0.0638
     29 H          -5.6495    0.2630    0.8139 H       1  UNL1        0.0807
     30 H          -3.3400    0.7386    1.6069 H       1  UNL1        0.1654
     31 H          -1.6686    1.1693    2.5945 H       1  UNL1        0.0581
     32 H           3.8446   -2.1422   -0.1911 H       1  UNL1        0.0841
     33 H           6.5243    0.9470   -1.0241 H       1  UNL1        0.0907
@<TRIPOS>BOND
     1     1     2    1
     2     2     3    2
     3     3     4   ar
     4     4     5   ar
     5     5     6   ar
     6     6     7   ar
     7     7     8   ar
     8     8     9   ar
     9     9    10   ar
    10    10    11   ar
    11    11    12   ar
    12    12    13   ar
    13    13    14   ar
    14    14    15   ar
    15    15    16    2
    16     4    17    1
    17    17    18   ar
    18    18    19   ar
    19    19    20   ar
    20    20    21   ar
    21    16     1    1
    22    21    17   ar
    23    15     3   ar
    24    14     6   ar
    25    13     9   ar
    26     1    22    1
    27     1    23    1
    28     2    24    1
    29     5    25    1
    30     7    26    1
    31     8    27    1
    32    10    28    1
    33    11    29    1
    34    12    30    1
    35    16    31    1
    36    18    32    1
    37    20    33    1
