@<TRIPOS>MOLECULE
*****
 45 51 0 0 0
SMALL
GASTEIGER

@<TRIPOS>ATOM
      1 C           0.7307    2.9622   -0.5204 C.3     1  UNL1       -0.0148
      2 C           1.9004    2.0292   -0.5456 C.2     1  UNL1       -0.0719
      3 C           1.4633    0.7595   -0.5848 C.ar    1  UNL1       -0.0130
      4 C           2.2382   -0.4513   -0.7957 C.ar    1  UNL1       -0.0027
      5 C           1.5395   -1.5753   -1.0702 C.ar    1  UNL1       -0.0452
      6 C           0.0524   -1.6200   -1.0884 C.ar    1  UNL1       -0.0161
      7 C          -0.5630   -2.7741   -1.5609 C.ar    1  UNL1       -0.0534
      8 C          -1.9488   -2.8583   -1.5700 C.ar    1  UNL1       -0.0534
      9 C          -2.7404   -1.8614   -0.9835 C.ar    1  UNL1       -0.0167
     10 C          -4.1271   -2.0309   -1.0113 C.ar    1  UNL1       -0.0534
     11 C          -4.9736   -1.1274   -0.3829 C.ar    1  UNL1       -0.0534
     12 C          -4.4500   -0.0873    0.3793 C.ar    1  UNL1       -0.0173
     13 C          -5.3307    0.7323    1.1071 C.ar    1  UNL1       -0.0540
     14 C          -4.8516    1.7072    1.9754 C.ar    1  UNL1       -0.0612
     15 C          -3.4853    1.8491    2.1449 C.ar    1  UNL1       -0.0611
     16 C          -2.6068    1.0485    1.4071 C.ar    1  UNL1       -0.0534
     17 C          -3.0443    0.1006    0.4481 C.ar    1  UNL1       -0.0096
     18 C          -2.1576   -0.7208   -0.3672 C.ar    1  UNL1       -0.0019
     19 C          -0.7463   -0.5411   -0.6053 C.ar    1  UNL1       -0.0022
     20 C           0.0012    0.7415   -0.5181 C.ar    1  UNL1       -0.0129
     21 C          -0.4303    2.0152   -0.5642 C.2     1  UNL1       -0.0719
     22 C           3.6642   -0.5326   -0.7443 C.ar    1  UNL1        0.0281
     23 S           4.6115   -0.9832   -2.1304 S.2     1  UNL1       -0.0949
     24 C           6.1113   -0.8158   -1.2997 C.ar    1  UNL1       -0.0094
     25 C           5.8992   -0.4204   -0.0117 C.ar    1  UNL1        0.0269
     26 S           7.0545   -0.0771    1.3260 S.2     1  UNL1       -0.0961
     27 C           5.6147    0.2764    2.2734 C.ar    1  UNL1       -0.0231
     28 C           4.3888    0.1383    1.6122 C.ar    1  UNL1       -0.0459
     29 C           4.5411   -0.2708    0.2605 C.ar    1  UNL1        0.0040
     30 H           0.7343    3.6173   -1.3965 H       1  UNL1        0.0350
     31 H           0.7187    3.5650    0.3921 H       1  UNL1        0.0350
     32 H           2.9277    2.3530   -0.6188 H       1  UNL1        0.0581
     33 H           2.0494   -2.5182   -1.2497 H       1  UNL1        0.0630
     34 H           0.0215   -3.5976   -1.9630 H       1  UNL1        0.0624
     35 H          -2.4084   -3.7444   -2.0048 H       1  UNL1        0.0624
     36 H          -4.5720   -2.8798   -1.5276 H       1  UNL1        0.0624
     37 H          -6.0475   -1.2911   -0.4396 H       1  UNL1        0.0624
     38 H          -6.4071    0.5958    1.0234 H       1  UNL1        0.0624
     39 H          -5.5431    2.3241    2.5421 H       1  UNL1        0.0618
     40 H          -3.0929    2.5700    2.8571 H       1  UNL1        0.0618
     41 H          -1.5471    1.1523    1.6270 H       1  UNL1        0.0624
     42 H          -1.4545    2.3449   -0.6497 H       1  UNL1        0.0581
     43 H           7.0626   -1.0056   -1.7770 H       1  UNL1        0.0705
     44 H           5.7643    0.5749    3.3022 H       1  UNL1        0.0694
     45 H           3.4393    0.3272    2.0990 H       1  UNL1        0.0629
@<TRIPOS>BOND
     1     1     2    1
     2     2     3    2
     3     3     4   ar
     4     4     5   ar
     5     5     6   ar
     6     6     7   ar
     7     7     8   ar
     8     8     9   ar
     9     9    10   ar
    10    10    11   ar
    11    11    12   ar
    12    12    13   ar
    13    13    14   ar
    14    14    15   ar
    15    15    16   ar
    16    16    17   ar
    17    17    18   ar
    18    18    19   ar
    19    19    20   ar
    20    20    21    2
    21     4    22    1
    22    22    23   ar
    23    23    24   ar
    24    24    25   ar
    25    25    26   ar
    26    26    27   ar
    27    27    28   ar
    28    28    29   ar
    29    21     1    1
    30    29    22   ar
    31    20     3   ar
    32    29    25   ar
    33    19     6   ar
    34    18     9   ar
    35    17    12   ar
    36     1    30    1
    37     1    31    1
    38     2    32    1
    39     5    33    1
    40     7    34    1
    41     8    35    1
    42    10    36    1
    43    11    37    1
    44    13    38    1
    45    14    39    1
    46    15    40    1
    47    16    41    1
    48    21    42    1
    49    24    43    1
    50    27    44    1
    51    28    45    1
