@<TRIPOS>MOLECULE
*****
 47 54 0 0 0
SMALL
GASTEIGER

@<TRIPOS>ATOM
      1 C           2.0610   -3.0306    1.5966 C.3     1  UNL1       -0.0148
      2 C           2.9011   -2.1891    0.6944 C.2     1  UNL1       -0.0719
      3 C           2.1388   -1.2496    0.1115 C.ar    1  UNL1       -0.0129
      4 C           2.5688   -0.1676   -0.7583 C.ar    1  UNL1       -0.0013
      5 C           1.6274    0.7218   -1.1391 C.ar    1  UNL1       -0.0437
      6 C           0.2039    0.5935   -0.7495 C.ar    1  UNL1        0.0021
      7 C          -0.6932    1.5576   -1.1649 C.ar    1  UNL1        0.0360
      8 N          -2.0151    1.5204   -0.9075 N.ar    1  UNL1       -0.2536
      9 C          -2.5452    0.4634   -0.2587 C.ar    1  UNL1        0.0828
     10 C          -1.7203   -0.5882    0.1914 C.ar    1  UNL1        0.0274
     11 C          -2.3967   -1.6738    0.7587 C.ar    1  UNL1        0.0380
     12 N          -3.7298   -1.7695    0.9744 N.ar    1  UNL1       -0.2542
     13 C          -4.5067   -0.7581    0.6019 C.ar    1  UNL1        0.0736
     14 C          -5.8934   -0.9086    0.8632 C.ar    1  UNL1       -0.0351
     15 C          -6.9059    0.0212    0.5455 C.ar    1  UNL1       -0.0515
     16 C          -6.3761    1.1418   -0.0767 C.ar    1  UNL1       -0.0101
     17 C          -7.1714    2.1853   -0.4812 C.ar    1  UNL1       -0.0166
     18 S          -6.2398    3.4250   -1.2129 S.2     1  UNL1       -0.1039
     19 C          -4.7742    2.5547   -0.9825 C.ar    1  UNL1       -0.0159
     20 C          -4.9756    1.3410   -0.3639 C.ar    1  UNL1        0.0003
     21 C          -3.9494    0.3902   -0.0332 C.ar    1  UNL1        0.0345
     22 C          -0.3042   -0.4881    0.0063 C.ar    1  UNL1        0.0016
     23 C           0.7387   -1.4162    0.5277 C.ar    1  UNL1       -0.0128
     24 C           0.7023   -2.4127    1.4320 C.2     1  UNL1       -0.0719
     25 C           3.9021    0.0645   -1.1908 C.ar    1  UNL1        0.0438
     26 S           4.4660   -0.1772   -2.8165 S.2     1  UNL1       -0.0939
     27 C           6.0967    0.2994   -2.4384 C.ar    1  UNL1       -0.0145
     28 C           6.1362    0.6110   -1.1273 C.ar    1  UNL1        0.0073
     29 C           7.0305    1.0561   -0.1234 C.ar    1  UNL1       -0.0361
     30 C           6.2902    1.1569    1.0747 C.ar    1  UNL1        0.0028
     31 N           4.9569    0.7973    0.8876 N.ar    1  UNL1       -0.3598
     32 C           4.9479    0.4854   -0.4430 C.ar    1  UNL1        0.0614
     33 H           2.4020   -2.9570    2.6334 H       1  UNL1        0.0350
     34 H           2.0604   -4.0778    1.2811 H       1  UNL1        0.0350
     35 H           3.9680   -2.3111    0.5772 H       1  UNL1        0.0581
     36 H           1.8887    1.5695   -1.7688 H       1  UNL1        0.0630
     37 H          -0.3749    2.4246   -1.7383 H       1  UNL1        0.0836
     38 H          -1.8831   -2.5830    1.0419 H       1  UNL1        0.0836
     39 H          -6.2035   -1.8338    1.3540 H       1  UNL1        0.0639
     40 H          -7.9505   -0.1485    0.7690 H       1  UNL1        0.0624
     41 H          -8.2433    2.2976   -0.3922 H       1  UNL1        0.0699
     42 H          -3.8542    3.0057   -1.3245 H       1  UNL1        0.0700
     43 H          -0.1319   -2.7610    2.0156 H       1  UNL1        0.0581
     44 H           6.8720    0.3106   -3.1904 H       1  UNL1        0.0700
     45 H           8.0832    1.2829   -0.2284 H       1  UNL1        0.0639
     46 H           6.6155    1.4629    2.0609 H       1  UNL1        0.0807
     47 H           4.1799    0.7613    1.5371 H       1  UNL1        0.1654
@<TRIPOS>BOND
     1     1     2    1
     2     2     3    2
     3     3     4   ar
     4     4     5   ar
     5     5     6   ar
     6     6     7   ar
     7     7     8   ar
     8     8     9   ar
     9     9    10   ar
    10    10    11   ar
    11    11    12   ar
    12    12    13   ar
    13    13    14   ar
    14    14    15   ar
    15    15    16   ar
    16    16    17   ar
    17    17    18   ar
    18    18    19   ar
    19    19    20   ar
    20    20    21   ar
    21    10    22   ar
    22    22    23   ar
    23    23    24    2
    24     4    25    1
    25    25    26   ar
    26    26    27   ar
    27    27    28   ar
    28    28    29   ar
    29    29    30   ar
    30    30    31   ar
    31    31    32   ar
    32    24     1    1
    33    32    25   ar
    34    23     3   ar
    35    32    28   ar
    36    22     6   ar
    37    21     9   ar
    38    21    13   ar
    39    20    16   ar
    40     1    33    1
    41     1    34    1
    42     2    35    1
    43     5    36    1
    44     7    37    1
    45    11    38    1
    46    14    39    1
    47    15    40    1
    48    17    41    1
    49    19    42    1
    50    24    43    1
    51    27    44    1
    52    29    45    1
    53    30    46    1
    54    31    47    1
