@<TRIPOS>MOLECULE
*****
 45 52 0 0 0
SMALL
GASTEIGER

@<TRIPOS>ATOM
      1 C           1.9163    3.3568   -0.2957 C.3     1  UNL1       -0.0148
      2 C           2.7885    2.1489   -0.4189 C.2     1  UNL1       -0.0719
      3 C           2.0331    1.0385   -0.3970 C.ar    1  UNL1       -0.0129
      4 C           2.4677   -0.3488   -0.4979 C.ar    1  UNL1       -0.0013
      5 C           1.5095   -1.3027   -0.4780 C.ar    1  UNL1       -0.0437
      6 C           0.0661   -0.9855   -0.3558 C.ar    1  UNL1        0.0025
      7 C          -0.8651   -2.0086   -0.3431 C.ar    1  UNL1        0.0361
      8 N          -2.1932   -1.8522   -0.2277 N.ar    1  UNL1       -0.2532
      9 C          -2.6491   -0.5736   -0.1155 C.ar    1  UNL1        0.0869
     10 C          -1.7953    0.5446   -0.1178 C.ar    1  UNL1        0.0470
     11 S          -2.7207    1.9997    0.0454 S.2     1  UNL1       -0.0860
     12 C          -4.2302    1.1889    0.1171 C.ar    1  UNL1        0.0226
     13 C          -5.5259    1.7657    0.2557 C.ar    1  UNL1       -0.0467
     14 C          -6.6885    0.9751    0.3015 C.ar    1  UNL1       -0.0524
     15 C          -6.4233   -0.3855    0.1986 C.ar    1  UNL1       -0.0102
     16 C          -7.4343   -1.3199    0.2235 C.ar    1  UNL1       -0.0166
     17 S          -6.8258   -2.9294    0.0779 S.2     1  UNL1       -0.1039
     18 C          -5.1935   -2.3842   -0.0206 C.ar    1  UNL1       -0.0159
     19 C          -5.1667   -1.0213    0.0595 C.ar    1  UNL1       -0.0006
     20 C          -4.0008   -0.1707    0.0169 C.ar    1  UNL1        0.0234
     21 C          -0.4010    0.3431   -0.2419 C.ar    1  UNL1        0.0068
     22 C           0.6182    1.4112   -0.2661 C.ar    1  UNL1       -0.0123
     23 C           0.5459    2.7524   -0.2029 C.2     1  UNL1       -0.0719
     24 C           3.8197   -0.7803   -0.5872 C.ar    1  UNL1        0.0438
     25 S           4.5297   -1.5238   -1.9892 S.2     1  UNL1       -0.0939
     26 C           6.0973   -1.6783   -1.2496 C.ar    1  UNL1       -0.0145
     27 C           6.0119   -1.1692   -0.0042 C.ar    1  UNL1        0.0073
     28 C           6.7966   -0.9403    1.1522 C.ar    1  UNL1       -0.0361
     29 C           5.9553   -0.3320    2.1091 C.ar    1  UNL1        0.0028
     30 N           4.6615   -0.1592    1.6209 N.ar    1  UNL1       -0.3598
     31 C           4.7783   -0.6789    0.3622 C.ar    1  UNL1        0.0614
     32 H           2.1569    3.9286    0.6052 H       1  UNL1        0.0350
     33 H           2.0043    3.9999   -1.1761 H       1  UNL1        0.0350
     34 H           3.8629    2.1897   -0.5221 H       1  UNL1        0.0581
     35 H           1.7732   -2.3561   -0.5401 H       1  UNL1        0.0630
     36 H          -0.5524   -3.0473   -0.4295 H       1  UNL1        0.0836
     37 H          -5.6216    2.8480    0.3282 H       1  UNL1        0.0629
     38 H          -7.6757    1.4079    0.4065 H       1  UNL1        0.0624
     39 H          -8.5002   -1.1643    0.3183 H       1  UNL1        0.0699
     40 H          -4.3862   -3.0945   -0.1287 H       1  UNL1        0.0700
     41 H          -0.3345    3.3650   -0.1120 H       1  UNL1        0.0581
     42 H           6.9314   -2.1179   -1.7768 H       1  UNL1        0.0700
     43 H           7.8419   -1.1771    1.2999 H       1  UNL1        0.0639
     44 H           6.1819   -0.0046    3.1158 H       1  UNL1        0.0807
     45 H           3.8360    0.2420    2.0505 H       1  UNL1        0.1654
@<TRIPOS>BOND
     1     1     2    1
     2     2     3    2
     3     3     4   ar
     4     4     5   ar
     5     5     6   ar
     6     6     7   ar
     7     7     8   ar
     8     8     9   ar
     9     9    10   ar
    10    10    11   ar
    11    11    12   ar
    12    12    13   ar
    13    13    14   ar
    14    14    15   ar
    15    15    16   ar
    16    16    17   ar
    17    17    18   ar
    18    18    19   ar
    19    19    20   ar
    20    10    21   ar
    21    21    22   ar
    22    22    23    2
    23     4    24    1
    24    24    25   ar
    25    25    26   ar
    26    26    27   ar
    27    27    28   ar
    28    28    29   ar
    29    29    30   ar
    30    30    31   ar
    31    23     1    1
    32    31    24   ar
    33    22     3   ar
    34    31    27   ar
    35    21     6   ar
    36    20     9   ar
    37    20    12   ar
    38    19    15   ar
    39     1    32    1
    40     1    33    1
    41     2    34    1
    42     5    35    1
    43     7    36    1
    44    13    37    1
    45    14    38    1
    46    16    39    1
    47    18    40    1
    48    23    41    1
    49    26    42    1
    50    28    43    1
    51    29    44    1
    52    30    45    1
