@<TRIPOS>MOLECULE
*****
 40 45 0 0 0
SMALL
GASTEIGER

@<TRIPOS>ATOM
      1 C           0.5563    1.5234   -2.7608 C.3     1  UNL1       -0.0148
      2 C           1.7948    1.1028   -2.0358 C.2     1  UNL1       -0.0719
      3 C           1.4585    0.4067   -0.9378 C.ar    1  UNL1       -0.0121
      4 C           2.3326   -0.3329   -0.0430 C.ar    1  UNL1        0.0063
      5 C           1.7380   -1.1413    0.8621 C.ar    1  UNL1       -0.0428
      6 C           0.2624   -1.2340    1.0017 C.ar    1  UNL1        0.0021
      7 C          -0.2851   -2.1496    1.8865 C.ar    1  UNL1        0.0360
      8 N          -1.6064   -2.2890    2.1331 N.ar    1  UNL1       -0.2543
      9 C          -2.4604   -1.4253    1.5746 C.ar    1  UNL1        0.0722
     10 C          -3.8239   -1.6008    1.9473 C.ar    1  UNL1       -0.0351
     11 C          -4.9108   -0.7807    1.5732 C.ar    1  UNL1       -0.0506
     12 C          -4.4498    0.2783    0.8192 C.ar    1  UNL1        0.0001
     13 C          -5.2199    1.3324    0.4031 C.ar    1  UNL1        0.0094
     14 N          -4.3684    2.2235   -0.2064 N.ar    1  UNL1       -0.3659
     15 C          -3.0749    1.7445   -0.1643 C.ar    1  UNL1        0.0101
     16 C          -3.1013    0.4887    0.3964 C.ar    1  UNL1        0.0092
     17 C          -2.0056   -0.3893    0.6838 C.ar    1  UNL1        0.0178
     18 C          -0.6266   -0.3895    0.2994 C.ar    1  UNL1        0.0008
     19 C          -0.0008    0.3662   -0.8081 C.ar    1  UNL1       -0.0128
     20 C          -0.5277    0.9404   -1.9032 C.2     1  UNL1       -0.0719
     21 C           3.7535   -0.2845   -0.0623 C.ar    1  UNL1        0.0471
     22 C           4.6717    0.7210    0.1682 C.ar    1  UNL1       -0.0364
     23 C           5.9643    0.1761   -0.0265 C.ar    1  UNL1       -0.0438
     24 C           5.8031   -1.1427   -0.3867 C.ar    1  UNL1        0.0022
     25 N           4.4586   -1.4116   -0.4158 N.ar    1  UNL1       -0.3606
     26 H           0.4754    2.6126   -2.8183 H       1  UNL1        0.0350
     27 H           0.5292    1.0971   -3.7679 H       1  UNL1        0.0350
     28 H           2.7979    1.2661   -2.4005 H       1  UNL1        0.0581
     29 H           2.3301   -1.7225    1.5643 H       1  UNL1        0.0631
     30 H           0.3427   -2.8393    2.4451 H       1  UNL1        0.0836
     31 H          -4.0447   -2.4433    2.6065 H       1  UNL1        0.0639
     32 H          -5.9257   -0.9431    1.9041 H       1  UNL1        0.0625
     33 H          -6.2721    1.5570    0.5142 H       1  UNL1        0.0813
     34 H          -4.6393    3.1257   -0.5760 H       1  UNL1        0.1648
     35 H          -2.2696    2.3731   -0.5146 H       1  UNL1        0.0813
     36 H          -1.5682    0.9611   -2.1835 H       1  UNL1        0.0581
     37 H           4.4323    1.7380    0.4515 H       1  UNL1        0.0639
     38 H           6.9093    0.6930    0.0791 H       1  UNL1        0.0633
     39 H           6.5256   -1.9098   -0.6307 H       1  UNL1        0.0807
     40 H           4.0446   -2.2987   -0.6709 H       1  UNL1        0.1653
@<TRIPOS>BOND
     1     1     2    1
     2     2     3    2
     3     3     4   ar
     4     4     5   ar
     5     5     6   ar
     6     6     7   ar
     7     7     8   ar
     8     8     9   ar
     9     9    10   ar
    10    10    11   ar
    11    11    12   ar
    12    12    13   ar
    13    13    14   ar
    14    14    15   ar
    15    15    16   ar
    16    16    17   ar
    17    17    18   ar
    18    18    19   ar
    19    19    20    2
    20     4    21    1
    21    21    22   ar
    22    22    23   ar
    23    23    24   ar
    24    24    25   ar
    25    20     1    1
    26    25    21   ar
    27    19     3   ar
    28    18     6   ar
    29    17     9   ar
    30    16    12   ar
    31     1    26    1
    32     1    27    1
    33     2    28    1
    34     5    29    1
    35     7    30    1
    36    10    31    1
    37    11    32    1
    38    13    33    1
    39    14    34    1
    40    15    35    1
    41    20    36    1
    42    22    37    1
    43    23    38    1
    44    24    39    1
    45    25    40    1
