@<TRIPOS>MOLECULE
*****
 47 54 0 0 0
SMALL
GASTEIGER

@<TRIPOS>ATOM
      1 C           1.5246    3.3102   -0.8810 C.3     1  UNL1        0.0000
      2 C           2.5998    2.3049   -0.6155 C.2     1  UNL1        0.0000
      3 C           2.0503    1.1508   -0.2041 C.ar    1  UNL1        0.0000
      4 C           2.7099   -0.0370    0.3152 C.ar    1  UNL1        0.0000
      5 C           1.9120   -0.9711    0.8791 C.ar    1  UNL1        0.0000
      6 C           0.4348   -0.8722    0.8959 C.ar    1  UNL1        0.0000
      7 N          -0.1676   -1.8649    1.5845 N.ar    1  UNL1        0.0000
      8 C          -1.5190   -1.8759    1.5888 C.ar    1  UNL1        0.0000
      9 C          -2.3529   -1.0167    0.8649 C.ar    1  UNL1        0.0000
     10 C          -3.7963   -1.1505    0.8940 C.ar    1  UNL1        0.0000
     11 SI         -4.8884   -2.3454    1.9133 Si      1  UNL1        0.0000
     12 C          -6.4188   -1.6220    1.0974 C.2     1  UNL1        0.0000
     13 C          -6.1365   -0.6500    0.2118 C.2     1  UNL1        0.0000
     14 C          -4.7065   -0.3896    0.1032 C.ar    1  UNL1        0.0000
     15 C          -4.0472    0.4756   -0.7489 C.ar    1  UNL1        0.0000
     16 C          -4.6119    1.2514   -1.7298 C.ar    1  UNL1        0.0000
     17 N          -3.5762    1.8447   -2.4108 N.ar    1  UNL1        0.0000
     18 C          -2.3695    1.4424   -1.8789 C.ar    1  UNL1        0.0000
     19 C          -2.6226    0.6554   -0.7787 C.ar    1  UNL1        0.0000
     20 C          -1.6748   -0.0143    0.0731 C.ar    1  UNL1        0.0000
     21 C          -0.2583    0.1403    0.2021 C.ar    1  UNL1        0.0000
     22 C           0.5880    1.2673   -0.2440 C.ar    1  UNL1        0.0000
     23 C           0.2815    2.5389   -0.5537 C.2     1  UNL1        0.0000
     24 C           4.1650   -0.2391    0.3412 C.ar    1  UNL1        0.0000
     25 N           4.9719    0.7122    0.9160 N.ar    1  UNL1        0.0000
     26 C           6.3314    0.5584    0.9611 C.ar    1  UNL1        0.0000
     27 C           7.0764   -0.5038    0.4606 C.ar    1  UNL1        0.0000
     28 C           6.2920   -1.4996   -0.1507 C.ar    1  UNL1        0.0000
     29 N           6.7668   -2.6210   -0.7159 N.ar    1  UNL1        0.0000
     30 S           5.4504   -3.4512   -1.2929 S.2     1  UNL1        0.0000
     31 N           4.2228   -2.4278   -0.8541 N.ar    1  UNL1        0.0000
     32 C           4.7911   -1.3822   -0.2240 C.ar    1  UNL1        0.0000
     33 H           1.5280    3.6340   -1.9257 H       1  UNL1        0.0000
     34 H           1.6305    4.1788   -0.2245 H       1  UNL1        0.0000
     35 H           3.6553    2.5275   -0.6602 H       1  UNL1        0.0000
     36 H           2.3117   -1.8708    1.3376 H       1  UNL1        0.0000
     37 H          -1.9211   -2.6751    2.2055 H       1  UNL1        0.0000
     38 H          -4.8246   -2.0523    3.3661 H       1  UNL1        0.0000
     39 H          -4.6565   -3.7622    1.5391 H       1  UNL1        0.0000
     40 H          -7.4022   -1.9890    1.3482 H       1  UNL1        0.0000
     41 H          -6.8709   -0.1085   -0.3671 H       1  UNL1        0.0000
     42 H          -5.6362    1.4062   -2.0395 H       1  UNL1        0.0000
     43 H          -3.6805    2.4386   -3.2234 H       1  UNL1        0.0000
     44 H          -1.4542    1.7426   -2.3675 H       1  UNL1        0.0000
     45 H          -0.6989    2.9873   -0.5406 H       1  UNL1        0.0000
     46 H           6.8448    1.3847    1.4532 H       1  UNL1        0.0000
     47 H           8.1529   -0.5602    0.5304 H       1  UNL1        0.0000
@<TRIPOS>BOND
     1     1     2    1
     2     2     3    2
     3     3     4   ar
     4     4     5   ar
     5     5     6   ar
     6     6     7   ar
     7     7     8   ar
     8     8     9   ar
     9     9    10   ar
    10    10    11    1
    11    11    12    1
    12    12    13    2
    13    13    14    1
    14    14    15   ar
    15    15    16   ar
    16    16    17   ar
    17    17    18   ar
    18    18    19   ar
    19    19    20   ar
    20    20    21   ar
    21    21    22   ar
    22    22    23    2
    23     4    24    1
    24    24    25   ar
    25    25    26   ar
    26    26    27   ar
    27    27    28   ar
    28    28    29   ar
    29    29    30   ar
    30    30    31   ar
    31    31    32   ar
    32    23     1    1
    33    32    24   ar
    34    22     3   ar
    35    32    28   ar
    36    21     6   ar
    37    20     9   ar
    38    14    10   ar
    39    19    15   ar
    40     1    33    1
    41     1    34    1
    42     2    35    1
    43     5    36    1
    44     8    37    1
    45    11    38    1
    46    11    39    1
    47    12    40    1
    48    13    41    1
    49    16    42    1
    50    17    43    1
    51    18    44    1
    52    23    45    1
    53    26    46    1
    54    27    47    1
