@<TRIPOS>MOLECULE
*****
 45 51 0 0 0
SMALL
GASTEIGER

@<TRIPOS>ATOM
      1 C           1.7794   -0.4645   -3.3430 C.3     1  UNL1       -0.0148
      2 C           2.8269   -0.4059   -2.2772 C.2     1  UNL1       -0.0719
      3 C           2.2490   -0.2259   -1.0777 C.ar    1  UNL1       -0.0137
      4 C           2.8924    0.0664    0.2011 C.ar    1  UNL1       -0.0121
      5 C           2.0706    0.5110    1.1789 C.ar    1  UNL1       -0.0277
      6 C           0.5983    0.5909    1.0429 C.ar    1  UNL1        0.0727
      7 N          -0.0242    1.1131    2.1200 N.ar    1  UNL1       -0.2542
      8 C          -1.3797    1.1380    2.1009 C.ar    1  UNL1        0.0380
      9 C          -2.2019    0.5867    1.1191 C.ar    1  UNL1        0.0275
     10 C          -3.6382    0.6547    1.2983 C.ar    1  UNL1        0.0808
     11 N          -4.1640    1.3222    2.3501 N.ar    1  UNL1       -0.2543
     12 C          -5.5092    1.3862    2.5142 C.ar    1  UNL1        0.0283
     13 C          -6.4268    0.7982    1.6670 C.ar    1  UNL1       -0.0430
     14 C          -5.9377    0.0947    0.5815 C.ar    1  UNL1       -0.0504
     15 C          -4.5398    0.0241    0.3946 C.ar    1  UNL1        0.0118
     16 C          -3.8633   -0.6748   -0.6194 C.ar    1  UNL1        0.0296
     17 C          -4.4137   -1.4806   -1.5822 C.ar    1  UNL1        0.1000
     18 O          -3.4189   -2.0758   -2.2989 O.2     1  UNL1       -0.4698
     19 C          -2.2316   -1.6350   -1.7880 C.ar    1  UNL1        0.1000
     20 C          -2.4490   -0.7086   -0.7976 C.ar    1  UNL1        0.0289
     21 C          -1.4985   -0.0261    0.0130 C.ar    1  UNL1        0.0061
     22 C          -0.0770    0.0903   -0.0855 C.ar    1  UNL1        0.0163
     23 C           0.7913   -0.1942   -1.2439 C.ar    1  UNL1       -0.0115
     24 C           0.5181   -0.2580   -2.5586 C.2     1  UNL1       -0.0719
     25 C           4.3188   -0.0276    0.4554 C.2     1  UNL1       -0.0359
     26 C           5.1413   -1.0299    0.0990 C.2     1  UNL1       -0.0580
     27 C           6.4843   -0.7358    0.5266 C.2     1  UNL1       -0.0651
     28 C           6.5024    0.4482    1.1534 C.2     1  UNL1       -0.0797
     29 C           5.1158    1.0276    1.1852 C.3     1  UNL1       -0.0086
     30 H           1.9204    0.3378   -4.0733 H       1  UNL1        0.0350
     31 H           1.7782   -1.4322   -3.8525 H       1  UNL1        0.0350
     32 H           3.8871   -0.4155   -2.4800 H       1  UNL1        0.0581
     33 H           2.4424    0.7826    2.1617 H       1  UNL1        0.0645
     34 H          -1.8081    1.6176    2.9811 H       1  UNL1        0.0836
     35 H          -5.8361    1.9479    3.3857 H       1  UNL1        0.0830
     36 H          -7.4912    0.8828    1.8533 H       1  UNL1        0.0633
     37 H          -6.6243   -0.3912   -0.1041 H       1  UNL1        0.0625
     38 H          -5.4180   -1.7686   -1.8592 H       1  UNL1        0.1036
     39 H          -1.3608   -2.0999   -2.2260 H       1  UNL1        0.1036
     40 H          -0.4412   -0.1220   -3.0317 H       1  UNL1        0.0581
     41 H           4.8643   -1.9321   -0.4257 H       1  UNL1        0.0620
     42 H           7.3311   -1.3834    0.3571 H       1  UNL1        0.0615
     43 H           7.3730    0.9225    1.5803 H       1  UNL1        0.0575
     44 H           5.0839    1.9879    0.6609 H       1  UNL1        0.0356
     45 H           4.7841    1.1566    2.2199 H       1  UNL1        0.0356
@<TRIPOS>BOND
     1     1     2    1
     2     2     3    2
     3     3     4   ar
     4     4     5   ar
     5     5     6   ar
     6     6     7   ar
     7     7     8   ar
     8     8     9   ar
     9     9    10   ar
    10    10    11   ar
    11    11    12   ar
    12    12    13   ar
    13    13    14   ar
    14    14    15   ar
    15    15    16   ar
    16    16    17   ar
    17    17    18   ar
    18    18    19   ar
    19    19    20   ar
    20    20    21   ar
    21    21    22   ar
    22    22    23   ar
    23    23    24    2
    24     4    25    1
    25    25    26    2
    26    26    27    1
    27    27    28    2
    28    28    29    1
    29    24     1    1
    30    29    25    1
    31    23     3   ar
    32    22     6   ar
    33    21     9   ar
    34    15    10   ar
    35    20    16   ar
    36     1    30    1
    37     1    31    1
    38     2    32    1
    39     5    33    1
    40     8    34    1
    41    12    35    1
    42    13    36    1
    43    14    37    1
    44    17    38    1
    45    19    39    1
    46    24    40    1
    47    26    41    1
    48    27    42    1
    49    28    43    1
    50    29    44    1
    51    29    45    1
