@<TRIPOS>MOLECULE
*****
 43 49 0 0 0
SMALL
GASTEIGER

@<TRIPOS>ATOM
      1 C          -1.2142   -0.2621   -3.5208 C.3     1  UNL1       -0.0148
      2 C          -2.1273    0.3233   -2.4880 C.2     1  UNL1       -0.0719
      3 C          -1.4800    0.4344   -1.3163 C.ar    1  UNL1       -0.0128
      4 C          -1.9713    0.9404   -0.0424 C.ar    1  UNL1       -0.0012
      5 C          -1.1148    0.9007    1.0025 C.ar    1  UNL1       -0.0268
      6 C           0.2704    0.3934    0.8957 C.ar    1  UNL1        0.0742
      7 N           0.9633    0.4449    2.0511 N.ar    1  UNL1       -0.2542
      8 C           2.2360    0.0018    2.0095 C.ar    1  UNL1        0.0395
      9 C           2.8704   -0.4967    0.8719 C.ar    1  UNL1        0.0450
     10 C           4.2037   -0.9380    0.9163 C.ar    1  UNL1        0.0830
     11 N           4.9286   -0.8988    2.0616 N.ar    1  UNL1       -0.2542
     12 C           6.2087   -1.3357    2.0487 C.ar    1  UNL1        0.0283
     13 C           6.8388   -1.8289    0.9254 C.ar    1  UNL1       -0.0430
     14 C           6.1097   -1.8752   -0.2533 C.ar    1  UNL1       -0.0497
     15 C           4.7786   -1.4268   -0.2639 C.ar    1  UNL1        0.0191
     16 C           3.9960   -1.4462   -1.4067 C.ar    1  UNL1        0.0375
     17 N           2.7165   -1.0239   -1.4517 N.ar    1  UNL1       -0.2535
     18 C           2.1349   -0.5466   -0.3289 C.ar    1  UNL1        0.0842
     19 C           0.8059   -0.0921   -0.3147 C.ar    1  UNL1        0.0338
     20 C          -0.1149   -0.0750   -1.4720 C.ar    1  UNL1       -0.0100
     21 C           0.0495   -0.4767   -2.7441 C.2     1  UNL1       -0.0718
     22 C          -3.2739    1.4685    0.2042 C.ar    1  UNL1        0.0291
     23 S          -3.8357    2.9297   -0.5867 S.2     1  UNL1       -0.0939
     24 C          -5.3816    2.9117    0.2038 C.ar    1  UNL1        0.0002
     25 C          -5.4156    1.8391    1.0177 C.ar    1  UNL1        0.0542
     26 N          -6.4445    1.4547    1.8266 N.ar    1  UNL1       -0.3602
     27 C          -5.9135    0.3065    2.4120 C.ar    1  UNL1        0.0028
     28 C          -4.6075    0.0415    1.9458 C.ar    1  UNL1       -0.0356
     29 C          -4.2790    1.0643    1.0180 C.ar    1  UNL1        0.0144
     30 H          -1.0557    0.4345   -4.3490 H       1  UNL1        0.0350
     31 H          -1.6069   -1.2085   -3.9038 H       1  UNL1        0.0350
     32 H          -3.1518    0.6031   -2.6810 H       1  UNL1        0.0581
     33 H          -1.3986    1.2586    1.9883 H       1  UNL1        0.0645
     34 H           2.7594    0.0615    2.9625 H       1  UNL1        0.0837
     35 H           6.7272   -1.2742    3.0017 H       1  UNL1        0.0830
     36 H           7.8679   -2.1672    0.9669 H       1  UNL1        0.0633
     37 H           6.5764   -2.2585   -1.1574 H       1  UNL1        0.0625
     38 H           4.3821   -1.8130   -2.3543 H       1  UNL1        0.0836
     39 H           0.9426   -0.9038   -3.1734 H       1  UNL1        0.0581
     40 H          -6.1335    3.6667    0.0247 H       1  UNL1        0.0714
     41 H          -7.3435    1.9038    1.9504 H       1  UNL1        0.1653
     42 H          -6.5135   -0.2428    3.1263 H       1  UNL1        0.0807
     43 H          -3.9893   -0.7924    2.2518 H       1  UNL1        0.0639
@<TRIPOS>BOND
     1     1     2    1
     2     2     3    2
     3     3     4   ar
     4     4     5   ar
     5     5     6   ar
     6     6     7   ar
     7     7     8   ar
     8     8     9   ar
     9     9    10   ar
    10    10    11   ar
    11    11    12   ar
    12    12    13   ar
    13    13    14   ar
    14    14    15   ar
    15    15    16   ar
    16    16    17   ar
    17    17    18   ar
    18    18    19   ar
    19    19    20   ar
    20    20    21    2
    21     4    22    1
    22    22    23   ar
    23    23    24   ar
    24    24    25   ar
    25    25    26   ar
    26    26    27   ar
    27    27    28   ar
    28    28    29   ar
    29    21     1    1
    30    29    22   ar
    31    20     3   ar
    32    29    25   ar
    33    19     6   ar
    34    18     9   ar
    35    15    10   ar
    36     1    30    1
    37     1    31    1
    38     2    32    1
    39     5    33    1
    40     8    34    1
    41    12    35    1
    42    13    36    1
    43    14    37    1
    44    16    38    1
    45    21    39    1
    46    24    40    1
    47    26    41    1
    48    27    42    1
    49    28    43    1
