@<TRIPOS>MOLECULE
*****
 46 53 0 0 0
SMALL
GASTEIGER

@<TRIPOS>ATOM
      1 C          -2.0631   -2.3502   -2.6986 C.3     1  UNL1       -0.0148
      2 C          -2.7841   -1.2946   -1.9059 C.2     1  UNL1       -0.0719
      3 C          -1.9012   -0.5823   -1.1860 C.ar    1  UNL1       -0.0127
      4 C          -2.1292    0.5505   -0.2711 C.ar    1  UNL1        0.0002
      5 C          -1.0506    1.1125    0.3379 C.ar    1  UNL1       -0.0099
      6 C           0.2573    0.5891    0.0636 C.ar    1  UNL1        0.1389
      7 O           1.4347    1.0589    0.6072 O.2     1  UNL1       -0.4526
      8 C           2.4092    0.2733    0.0733 C.ar    1  UNL1        0.1620
      9 C           1.8962   -0.6599   -0.7717 C.ar    1  UNL1        0.0945
     10 N           2.9403   -1.4182   -1.2742 N.ar    1  UNL1       -0.3511
     11 C           4.1311   -0.9520   -0.7328 C.ar    1  UNL1        0.0512
     12 C           5.4853   -1.3461   -0.8907 C.ar    1  UNL1       -0.0370
     13 C           6.5193   -0.6648   -0.1898 C.ar    1  UNL1       -0.0506
     14 C           6.0583    0.3752    0.6212 C.ar    1  UNL1        0.0002
     15 C           6.8314    1.1976    1.4063 C.ar    1  UNL1        0.0094
     16 N           5.9797    2.0911    2.0446 N.ar    1  UNL1       -0.3659
     17 C           4.6670    1.8551    1.6815 C.ar    1  UNL1        0.0102
     18 C           4.7383    0.8092    0.8167 C.ar    1  UNL1        0.0121
     19 C           3.7721    0.0940    0.0962 C.ar    1  UNL1        0.0517
     20 C           0.5115   -0.4782   -0.7942 C.ar    1  UNL1        0.0516
     21 C          -0.5583   -1.1085   -1.4555 C.ar    1  UNL1       -0.0084
     22 C          -0.6253   -2.1267   -2.3201 C.2     1  UNL1       -0.0718
     23 C          -3.4179    1.0784    0.0504 C.ar    1  UNL1        0.0274
     24 S          -3.8995    2.6682   -0.4767 S.2     1  UNL1       -0.0958
     25 C          -5.4675    2.5453    0.2383 C.ar    1  UNL1       -0.0197
     26 C          -5.6190    1.3321    0.8485 C.ar    1  UNL1       -0.0289
     27 C          -6.6757    0.6118    1.6142 C.3     1  UNL1       -0.0081
     28 C          -5.9563   -0.7081    1.9089 C.2     1  UNL1       -0.0791
     29 C          -4.7067   -0.7135    1.3910 C.2     1  UNL1       -0.0568
     30 C          -4.4658    0.5211    0.7330 C.ar    1  UNL1       -0.0070
     31 H          -2.3944   -3.3522   -2.4105 H       1  UNL1        0.0350
     32 H          -2.2136   -2.2059   -3.7725 H       1  UNL1        0.0350
     33 H          -3.8531   -1.1436   -1.9300 H       1  UNL1        0.0581
     34 H          -1.1335    1.9386    1.0356 H       1  UNL1        0.0661
     35 H           2.8199   -2.1799   -1.9277 H       1  UNL1        0.1660
     36 H           5.7419   -2.1721   -1.5492 H       1  UNL1        0.0638
     37 H           7.5609   -0.9410   -0.2890 H       1  UNL1        0.0625
     38 H           7.8974    1.2451    1.5807 H       1  UNL1        0.0813
     39 H           6.2791    2.8138    2.6856 H       1  UNL1        0.1648
     40 H           3.8491    2.4456    2.0707 H       1  UNL1        0.0813
     41 H           0.2033   -2.7017   -2.7001 H       1  UNL1        0.0581
     42 H          -6.1699    3.3634    0.1623 H       1  UNL1        0.0696
     43 H          -7.5709    0.4402    1.0102 H       1  UNL1        0.0356
     44 H          -6.9316    1.1307    2.5421 H       1  UNL1        0.0356
     45 H          -6.4032   -1.5191    2.4642 H       1  UNL1        0.0575
     46 H          -3.9927   -1.5222    1.4621 H       1  UNL1        0.0621
@<TRIPOS>BOND
     1     1     2    1
     2     2     3    2
     3     3     4   ar
     4     4     5   ar
     5     5     6   ar
     6     6     7   ar
     7     7     8   ar
     8     8     9   ar
     9     9    10   ar
    10    10    11   ar
    11    11    12   ar
    12    12    13   ar
    13    13    14   ar
    14    14    15   ar
    15    15    16   ar
    16    16    17   ar
    17    17    18   ar
    18    18    19   ar
    19     9    20   ar
    20    20    21   ar
    21    21    22    2
    22     4    23    1
    23    23    24   ar
    24    24    25   ar
    25    25    26   ar
    26    26    27    1
    27    27    28    1
    28    28    29    2
    29    29    30    1
    30    22     1    1
    31    30    23   ar
    32    21     3   ar
    33    30    26   ar
    34    20     6   ar
    35    19     8   ar
    36    19    11   ar
    37    18    14   ar
    38     1    31    1
    39     1    32    1
    40     2    33    1
    41     5    34    1
    42    10    35    1
    43    12    36    1
    44    13    37    1
    45    15    38    1
    46    16    39    1
    47    17    40    1
    48    22    41    1
    49    25    42    1
    50    27    43    1
    51    27    44    1
    52    28    45    1
    53    29    46    1
