@<TRIPOS>MOLECULE
*****
 43 49 0 0 0
SMALL
GASTEIGER

@<TRIPOS>ATOM
      1 SI          2.6326   -1.8321   -0.2138 Si      1  UNL1        0.0000
      2 C           3.8710   -0.4038   -0.0211 C.2     1  UNL1        0.0000
      3 C           3.2582    0.7807    0.2023 C.2     1  UNL1        0.0000
      4 C           1.7985    0.6713    0.2527 C.ar    1  UNL1        0.0000
      5 C           1.2540   -0.6185    0.0521 C.ar    1  UNL1        0.0000
      6 C          -0.1316   -0.8523    0.0831 C.ar    1  UNL1        0.0000
      7 N          -0.8716   -2.0054    0.0036 N.ar    1  UNL1        0.0000
      8 C          -2.2233   -1.7377    0.0819 C.ar    1  UNL1        0.0000
      9 C          -3.2844   -2.6467    0.1180 C.ar    1  UNL1        0.0000
     10 C          -4.5810   -2.1374    0.1339 C.ar    1  UNL1        0.0000
     11 C          -4.8246   -0.7675    0.0191 C.ar    1  UNL1        0.0000
     12 C          -6.1445   -0.2951   -0.0642 C.ar    1  UNL1        0.0000
     13 C          -6.4107    1.0564   -0.2798 C.ar    1  UNL1        0.0000
     14 C          -5.3593    1.9488   -0.4433 C.ar    1  UNL1        0.0000
     15 C          -4.0406    1.4985   -0.3468 C.ar    1  UNL1        0.0000
     16 C          -3.7407    0.1497   -0.0560 C.ar    1  UNL1        0.0000
     17 C          -2.3983   -0.3443    0.0944 C.ar    1  UNL1        0.0000
     18 C          -1.0773    0.1562    0.2555 C.ar    1  UNL1        0.0000
     19 C          -0.5617    1.4721    0.5839 C.ar    1  UNL1        0.0000
     20 C          -1.2635    2.5397    1.0637 C.ar    1  UNL1        0.0000
     21 S          -0.2054    3.8766    1.3059 S.2     1  UNL1        0.0000
     22 C           1.1817    2.9504    0.8704 C.ar    1  UNL1        0.0000
     23 C           0.8551    1.6530    0.5406 C.ar    1  UNL1        0.0000
     24 C           5.2806   -0.5450   -0.1475 C.ar    1  UNL1        0.0000
     25 C           6.1923    0.3502   -0.6917 C.ar    1  UNL1        0.0000
     26 C           7.5405   -0.1077   -0.6422 C.ar    1  UNL1        0.0000
     27 C           7.6376   -1.3441   -0.0514 C.ar    1  UNL1        0.0000
     28 S           6.1162   -1.9401    0.4372 S.2     1  UNL1        0.0000
     29 H           2.6944   -2.8390    0.8778 H       1  UNL1        0.0000
     30 H           2.6092   -2.4124   -1.5818 H       1  UNL1        0.0000
     31 H           3.7642    1.7261    0.3374 H       1  UNL1        0.0000
     32 H          -0.4869   -2.9358   -0.0675 H       1  UNL1        0.0000
     33 H          -3.1135   -3.7186    0.1390 H       1  UNL1        0.0000
     34 H          -5.4113   -2.8398    0.1794 H       1  UNL1        0.0000
     35 H          -6.9824   -0.9846    0.0151 H       1  UNL1        0.0000
     36 H          -7.4378    1.4035   -0.3542 H       1  UNL1        0.0000
     37 H          -5.5604    2.9941   -0.6628 H       1  UNL1        0.0000
     38 H          -3.2491    2.2068   -0.5644 H       1  UNL1        0.0000
     39 H          -2.3052    2.6381    1.3242 H       1  UNL1        0.0000
     40 H           2.1547    3.4178    0.9194 H       1  UNL1        0.0000
     41 H           5.9001    1.3014   -1.1208 H       1  UNL1        0.0000
     42 H           8.3925    0.4440   -1.0197 H       1  UNL1        0.0000
     43 H           8.5317   -1.9275    0.1206 H       1  UNL1        0.0000
@<TRIPOS>BOND
     1     1     2    1
     2     2     3    2
     3     3     4    1
     4     4     5   ar
     5     5     6   ar
     6     6     7   ar
     7     7     8   ar
     8     8     9   ar
     9     9    10   ar
    10    10    11   ar
    11    11    12   ar
    12    12    13   ar
    13    13    14   ar
    14    14    15   ar
    15    15    16   ar
    16    16    17   ar
    17    17    18   ar
    18    18    19   ar
    19    19    20   ar
    20    20    21   ar
    21    21    22   ar
    22    22    23   ar
    23     2    24    1
    24    24    25   ar
    25    25    26   ar
    26    26    27   ar
    27    27    28   ar
    28     5     1    1
    29    18     6   ar
    30    23    19   ar
    31    28    24   ar
    32    23     4   ar
    33    17     8   ar
    34    16    11   ar
    35     1    29    1
    36     1    30    1
    37     3    31    1
    38     7    32    1
    39     9    33    1
    40    10    34    1
    41    12    35    1
    42    13    36    1
    43    14    37    1
    44    15    38    1
    45    20    39    1
    46    22    40    1
    47    25    41    1
    48    26    42    1
    49    27    43    1
