@<TRIPOS>MOLECULE
*****
 43 49 0 0 0
SMALL
GASTEIGER

@<TRIPOS>ATOM
      1 SI          1.8704   -3.2107    1.9586 Si      1  UNL1        0.0000
      2 C           3.0056   -2.1191    0.9838 C.2     1  UNL1        0.0000
      3 C           2.3551   -1.0694    0.4370 C.ar    1  UNL1        0.0000
      4 C           3.0328    0.0427   -0.2358 C.ar    1  UNL1        0.0000
      5 C           2.2905    1.1165   -0.5815 C.ar    1  UNL1        0.0000
      6 C           0.8407    1.1567   -0.3666 C.ar    1  UNL1        0.0000
      7 C           0.0690    2.2714   -0.6905 C.ar    1  UNL1        0.0000
      8 C           0.4822    3.5045   -1.1300 C.ar    1  UNL1        0.0000
      9 O          -0.6000    4.3151   -1.3240 O.2     1  UNL1        0.0000
     10 C          -1.7134    3.5882   -1.0128 C.ar    1  UNL1        0.0000
     11 C          -1.3494    2.3256   -0.6164 C.ar    1  UNL1        0.0000
     12 C          -2.1867    1.2495   -0.2560 C.ar    1  UNL1        0.0000
     13 C          -3.6028    1.3101   -0.2529 C.ar    1  UNL1        0.0000
     14 C          -4.3543    0.1677    0.0292 C.ar    1  UNL1        0.0000
     15 C          -5.7550    0.1829    0.0385 C.ar    1  UNL1        0.0000
     16 C          -6.4318   -0.9981    0.2961 C.ar    1  UNL1        0.0000
     17 N          -5.8204   -2.1747    0.5371 N.ar    1  UNL1        0.0000
     18 C          -4.4668   -2.1656    0.5225 C.ar    1  UNL1        0.0000
     19 C          -3.6797   -1.0352    0.2839 C.ar    1  UNL1        0.0000
     20 C          -2.2638   -1.0710    0.2852 C.ar    1  UNL1        0.0000
     21 C          -1.4431    0.0637    0.0716 C.ar    1  UNL1        0.0000
     22 C           0.0408    0.0602    0.1155 C.ar    1  UNL1        0.0000
     23 C           0.8799   -1.0577    0.6752 C.ar    1  UNL1        0.0000
     24 C           0.4843   -2.0298    1.5268 C.2     1  UNL1        0.0000
     25 C           4.4363    0.0726   -0.5455 C.ar    1  UNL1        0.0000
     26 N           5.0763   -0.7624   -1.3460 N.ar    1  UNL1        0.0000
     27 C           6.4212   -0.4585   -1.3957 C.ar    1  UNL1        0.0000
     28 C           6.8195    0.6038   -0.6186 C.ar    1  UNL1        0.0000
     29 S           5.4702    1.2517    0.2096 S.2     1  UNL1        0.0000
     30 H           2.1711   -3.2068    3.4102 H       1  UNL1        0.0000
     31 H           1.6713   -4.5460    1.3463 H       1  UNL1        0.0000
     32 H           4.0676   -2.3110    0.9565 H       1  UNL1        0.0000
     33 H           2.7458    1.9611   -1.0888 H       1  UNL1        0.0000
     34 H           1.4384    3.9613   -1.3422 H       1  UNL1        0.0000
     35 H          -2.6509    4.1111   -1.1365 H       1  UNL1        0.0000
     36 H          -4.1094    2.2421   -0.4893 H       1  UNL1        0.0000
     37 H          -6.3142    1.0919   -0.1554 H       1  UNL1        0.0000
     38 H          -7.5176   -1.0284    0.3117 H       1  UNL1        0.0000
     39 H          -4.0132   -3.1336    0.7206 H       1  UNL1        0.0000
     40 H          -1.8052   -2.0479    0.4051 H       1  UNL1        0.0000
     41 H          -0.4769   -2.1857    1.9831 H       1  UNL1        0.0000
     42 H           7.0744   -1.0543   -2.0215 H       1  UNL1        0.0000
     43 H           7.8109    1.0156   -0.4983 H       1  UNL1        0.0000
@<TRIPOS>BOND
     1     1     2    1
     2     2     3    2
     3     3     4   ar
     4     4     5   ar
     5     5     6   ar
     6     6     7   ar
     7     7     8   ar
     8     8     9   ar
     9     9    10   ar
    10    10    11   ar
    11    11    12   ar
    12    12    13   ar
    13    13    14   ar
    14    14    15   ar
    15    15    16   ar
    16    16    17   ar
    17    17    18   ar
    18    18    19   ar
    19    19    20   ar
    20    20    21   ar
    21    21    22   ar
    22    22    23   ar
    23    23    24    2
    24     4    25    1
    25    25    26   ar
    26    26    27   ar
    27    27    28   ar
    28    28    29   ar
    29    24     1    1
    30    29    25   ar
    31    23     3   ar
    32    22     6   ar
    33    11     7   ar
    34    21    12   ar
    35    19    14   ar
    36     1    30    1
    37     1    31    1
    38     2    32    1
    39     5    33    1
    40     8    34    1
    41    10    35    1
    42    13    36    1
    43    15    37    1
    44    16    38    1
    45    18    39    1
    46    20    40    1
    47    24    41    1
    48    27    42    1
    49    28    43    1
