@<TRIPOS>MOLECULE
*****
 41 47 0 0 0
SMALL
GASTEIGER

@<TRIPOS>ATOM
      1 C           0.8334   -3.0331   -1.6350 C.3     1  UNL1        0.0000
      2 C           1.6905   -1.8233   -1.3875 C.2     1  UNL1        0.0000
      3 C           0.9408   -0.8298   -0.8816 C.ar    1  UNL1        0.0000
      4 C           1.3375    0.5318   -0.4904 C.ar    1  UNL1        0.0000
      5 C           0.3808    1.3637   -0.0024 C.ar    1  UNL1        0.0000
      6 C          -0.9657    0.8861    0.1038 C.ar    1  UNL1        0.0000
      7 O          -2.0438    1.6141    0.5787 O.2     1  UNL1        0.0000
      8 C          -3.1163    0.7920    0.5103 C.ar    1  UNL1        0.0000
      9 C          -2.7552   -0.4444    0.0059 C.ar    1  UNL1        0.0000
     10 SI         -4.2819   -1.5451   -0.0667 Si      1  UNL1        0.0000
     11 C          -5.3173   -0.1195    0.6419 C.ar    1  UNL1        0.0000
     12 C          -6.6090    0.2182    1.0230 C.ar    1  UNL1        0.0000
     13 C          -6.5267    1.5341    1.4643 C.ar    1  UNL1        0.0000
     14 N          -5.2174    1.9787    1.3518 N.ar    1  UNL1        0.0000
     15 C          -4.4835    0.9583    0.8473 C.ar    1  UNL1        0.0000
     16 C          -1.4020   -0.4017   -0.2549 C.ar    1  UNL1        0.0000
     17 C          -0.4423   -1.3067   -0.7653 C.ar    1  UNL1        0.0000
     18 C          -0.5268   -2.5725   -1.1915 C.2     1  UNL1        0.0000
     19 C           2.6757    1.0331   -0.5551 C.ar    1  UNL1        0.0000
     20 S           3.1235    2.1877   -1.7824 S.2     1  UNL1        0.0000
     21 C           4.7634    2.2720   -1.2545 C.ar    1  UNL1        0.0000
     22 C           4.9401    1.4415   -0.1927 C.ar    1  UNL1        0.0000
     23 SI          6.3715    0.9568    0.9288 Si      1  UNL1        0.0000
     24 C           5.1701   -0.2034    1.8614 C.2     1  UNL1        0.0000
     25 C           3.9273   -0.1539    1.3332 C.2     1  UNL1        0.0000
     26 C           3.7781    0.7330    0.2149 C.ar    1  UNL1        0.0000
     27 H           1.1740   -3.8846   -1.0387 H       1  UNL1        0.0000
     28 H           0.8307   -3.3023   -2.6954 H       1  UNL1        0.0000
     29 H           2.7490   -1.7772   -1.5961 H       1  UNL1        0.0000
     30 H           0.5929    2.3769    0.3202 H       1  UNL1        0.0000
     31 H          -4.6707   -1.9125   -1.4535 H       1  UNL1        0.0000
     32 H          -4.2002   -2.7139    0.8480 H       1  UNL1        0.0000
     33 H          -7.5067   -0.3856    0.9956 H       1  UNL1        0.0000
     34 H          -7.2873    2.1994    1.8507 H       1  UNL1        0.0000
     35 H          -4.8714    2.8968    1.5998 H       1  UNL1        0.0000
     36 H          -1.4145   -3.1827   -1.2253 H       1  UNL1        0.0000
     37 H           5.4716    2.9159   -1.7579 H       1  UNL1        0.0000
     38 H           7.4369    0.1800    0.2475 H       1  UNL1        0.0000
     39 H           6.8478    2.0508    1.8113 H       1  UNL1        0.0000
     40 H           5.5067   -0.7939    2.6981 H       1  UNL1        0.0000
     41 H           3.0965   -0.7348    1.7182 H       1  UNL1        0.0000
@<TRIPOS>BOND
     1     1     2    1
     2     2     3    2
     3     3     4   ar
     4     4     5   ar
     5     5     6   ar
     6     6     7   ar
     7     7     8   ar
     8     8     9   ar
     9     9    10    1
    10    10    11    1
    11    11    12   ar
    12    12    13   ar
    13    13    14   ar
    14    14    15   ar
    15     9    16   ar
    16    16    17   ar
    17    17    18    2
    18     4    19    1
    19    19    20   ar
    20    20    21   ar
    21    21    22   ar
    22    22    23    1
    23    23    24    1
    24    24    25    2
    25    25    26    1
    26    18     1    1
    27    26    19   ar
    28    17     3   ar
    29    26    22   ar
    30    16     6   ar
    31     8    15    1
    32    15    11   ar
    33     1    27    1
    34     1    28    1
    35     2    29    1
    36     5    30    1
    37    10    31    1
    38    10    32    1
    39    12    33    1
    40    13    34    1
    41    14    35    1
    42    18    36    1
    43    21    37    1
    44    23    38    1
    45    23    39    1
    46    24    40    1
    47    25    41    1
