@<TRIPOS>MOLECULE
*****
 47 54 0 0 0
SMALL
GASTEIGER

@<TRIPOS>ATOM
      1 C           3.6561   -3.1892   -0.0624 C.3     1  UNL1       -0.0148
      2 C           4.1928   -1.7985    0.0764 C.2     1  UNL1       -0.0718
      3 C           3.1830   -0.9123    0.1237 C.ar    1  UNL1       -0.0103
      4 C           3.2383    0.5604    0.1749 C.ar    1  UNL1        0.0301
      5 C           2.0589    1.2267    0.0827 C.ar    1  UNL1       -0.0074
      6 C           0.8354    0.4917    0.0005 C.ar    1  UNL1        0.1376
      7 O          -0.4050    1.0686   -0.0973 O.2     1  UNL1       -0.4541
      8 C          -1.3445    0.0734   -0.0929 C.ar    1  UNL1        0.1452
      9 C          -0.6743   -1.1380    0.0221 C.ar    1  UNL1        0.0398
     10 C          -1.5063   -2.2924    0.1271 C.ar    1  UNL1        0.0318
     11 C          -1.2396   -3.6063    0.3502 C.ar    1  UNL1        0.1001
     12 O          -2.4317   -4.2851    0.3727 O.2     1  UNL1       -0.4698
     13 C          -3.4325   -3.3686    0.1863 C.ar    1  UNL1        0.1000
     14 C          -2.9058   -2.1050    0.0472 C.ar    1  UNL1        0.0284
     15 C          -3.6065   -0.9090   -0.1130 C.ar    1  UNL1       -0.0030
     16 C          -5.0757   -0.8096   -0.1871 C.ar    1  UNL1       -0.0527
     17 C          -5.6719    0.3920   -0.3154 C.ar    1  UNL1       -0.0537
     18 C          -4.8649    1.5871   -0.3795 C.ar    1  UNL1       -0.0211
     19 C          -5.2668    2.8593   -0.5048 C.2     1  UNL1       -0.0725
     20 C          -4.0652    3.7603   -0.5277 C.3     1  UNL1       -0.0148
     21 C          -2.9262    2.7895   -0.3956 C.2     1  UNL1       -0.0718
     22 C          -3.4049    1.5380   -0.3104 C.ar    1  UNL1       -0.0105
     23 C          -2.7477    0.2316   -0.1721 C.ar    1  UNL1        0.0331
     24 C           0.7013   -0.9042    0.0174 C.ar    1  UNL1        0.0360
     25 C           1.9081   -1.6566    0.0324 C.ar    1  UNL1       -0.0098
     26 C           2.1750   -2.9613   -0.1075 C.2     1  UNL1       -0.0718
     27 C           4.4787    1.3693    0.3116 C.ar    1  UNL1        0.1637
     28 N           4.4777    2.6051   -0.2041 N.ar    1  UNL1       -0.2160
     29 C           5.6108    3.2815   -0.0370 C.ar    1  UNL1        0.1200
     30 N           6.6994    2.8429    0.5869 N.ar    1  UNL1       -0.2241
     31 C           6.5822    1.6078    1.0645 C.ar    1  UNL1        0.1200
     32 N           5.5118    0.8250    0.9609 N.ar    1  UNL1       -0.2160
     33 H           4.0092   -3.6546   -0.9874 H       1  UNL1        0.0350
     34 H           3.9356   -3.8107    0.7931 H       1  UNL1        0.0350
     35 H           5.2480   -1.5728    0.0966 H       1  UNL1        0.0581
     36 H           1.9928    2.3096    0.1009 H       1  UNL1        0.0662
     37 H          -0.3728   -4.2185    0.5306 H       1  UNL1        0.1036
     38 H          -4.4316   -3.7807    0.1970 H       1  UNL1        0.1036
     39 H          -5.6726   -1.7122   -0.1384 H       1  UNL1        0.0624
     40 H          -6.7512    0.4809   -0.3716 H       1  UNL1        0.0624
     41 H          -6.2870    3.2019   -0.5794 H       1  UNL1        0.0581
     42 H          -4.0047    4.3120   -1.4704 H       1  UNL1        0.0350
     43 H          -4.0833    4.4623    0.3110 H       1  UNL1        0.0350
     44 H          -1.8881    3.0824   -0.3756 H       1  UNL1        0.0581
     45 H           1.4768   -3.7583   -0.2780 H       1  UNL1        0.0581
     46 H           5.6490    4.2852   -0.4469 H       1  UNL1        0.1048
     47 H           7.4402    1.1995    1.5877 H       1  UNL1        0.1048
@<TRIPOS>BOND
     1     1     2    1
     2     2     3    2
     3     3     4   ar
     4     4     5   ar
     5     5     6   ar
     6     6     7   ar
     7     7     8   ar
     8     8     9   ar
     9     9    10   ar
    10    10    11   ar
    11    11    12   ar
    12    12    13   ar
    13    13    14   ar
    14    14    15   ar
    15    15    16   ar
    16    16    17   ar
    17    17    18   ar
    18    18    19    2
    19    19    20    1
    20    20    21    1
    21    21    22    2
    22    22    23   ar
    23     9    24   ar
    24    24    25   ar
    25    25    26    2
    26     4    27    1
    27    27    28   ar
    28    28    29   ar
    29    29    30   ar
    30    30    31   ar
    31    31    32   ar
    32    26     1    1
    33    32    27   ar
    34    25     3   ar
    35    24     6   ar
    36    23     8   ar
    37    14    10   ar
    38    23    15   ar
    39    22    18   ar
    40     1    33    1
    41     1    34    1
    42     2    35    1
    43     5    36    1
    44    11    37    1
    45    13    38    1
    46    16    39    1
    47    17    40    1
    48    19    41    1
    49    20    42    1
    50    20    43    1
    51    21    44    1
    52    26    45    1
    53    29    46    1
    54    31    47    1
