@<TRIPOS>MOLECULE
*****
 46 53 0 0 0
SMALL
GASTEIGER

@<TRIPOS>ATOM
      1 C           3.9232   -3.1548   -0.2565 C.3     1  UNL1       -0.0148
      2 C           4.3479   -1.7189   -0.2218 C.2     1  UNL1       -0.0718
      3 C           3.2699   -0.9205   -0.1408 C.ar    1  UNL1       -0.0103
      4 C           3.2120    0.5504   -0.0880 C.ar    1  UNL1        0.0281
      5 C           1.9824    1.1201   -0.0251 C.ar    1  UNL1       -0.0075
      6 C           0.8203    0.2860   -0.0160 C.ar    1  UNL1        0.1376
      7 O          -0.4653    0.7522    0.0431 O.2     1  UNL1       -0.4541
      8 C          -1.3308   -0.3121    0.0376 C.ar    1  UNL1        0.1467
      9 C          -0.5584   -1.4575   -0.0272 C.ar    1  UNL1        0.0572
     10 C          -1.2324   -2.7126   -0.0459 C.ar    1  UNL1        0.1118
     11 N          -0.6143   -3.8797   -0.1059 N.ar    1  UNL1       -0.1900
     12 S          -1.8681   -4.9814   -0.0995 S.2     1  UNL1        0.1165
     13 N          -3.1749   -3.9464   -0.0215 N.ar    1  UNL1       -0.1901
     14 C          -2.6853   -2.6864    0.0042 C.ar    1  UNL1        0.1084
     15 C          -3.4487   -1.4761    0.0705 C.ar    1  UNL1        0.0144
     16 C          -4.8504   -1.5204    0.1160 C.ar    1  UNL1       -0.0512
     17 C          -5.5827   -0.3401    0.1803 C.ar    1  UNL1       -0.0534
     18 C          -4.9480    0.9082    0.2015 C.ar    1  UNL1       -0.0172
     19 C          -5.7387    2.0679    0.2675 C.ar    1  UNL1       -0.0540
     20 C          -5.1619    3.3339    0.2918 C.ar    1  UNL1       -0.0612
     21 C          -3.7828    3.4545    0.2504 C.ar    1  UNL1       -0.0611
     22 C          -2.9837    2.3087    0.1844 C.ar    1  UNL1       -0.0533
     23 C          -3.5290    0.9988    0.1572 C.ar    1  UNL1       -0.0066
     24 C          -2.7620   -0.2267    0.0894 C.ar    1  UNL1        0.0349
     25 C           0.7978   -1.1118   -0.0621 C.ar    1  UNL1        0.0375
     26 C           2.0596   -1.7670   -0.1284 C.ar    1  UNL1       -0.0097
     27 C           2.4287   -3.0527   -0.1926 C.2     1  UNL1       -0.0718
     28 C           4.3574    1.4207   -0.0767 C.ar    1  UNL1        0.1355
     29 C           4.5117    2.7205   -0.5603 C.ar    1  UNL1       -0.0159
     30 C           5.8388    3.1382   -0.3023 C.ar    1  UNL1       -0.0233
     31 C           6.4448    2.0821    0.3241 C.ar    1  UNL1        0.0926
     32 O           5.5767    1.0533    0.4613 O.2     1  UNL1       -0.4629
     33 H           4.3181   -3.7042    0.6031 H       1  UNL1        0.0350
     34 H           4.2454   -3.6388   -1.1831 H       1  UNL1        0.0350
     35 H           5.3784   -1.3990   -0.2570 H       1  UNL1        0.0581
     36 H           1.8278    2.1907    0.0389 H       1  UNL1        0.0662
     37 H          -5.3781   -2.4724    0.1017 H       1  UNL1        0.0624
     38 H          -6.6690   -0.4071    0.2145 H       1  UNL1        0.0624
     39 H          -6.8241    1.9935    0.3012 H       1  UNL1        0.0624
     40 H          -5.7887    4.2197    0.3433 H       1  UNL1        0.0618
     41 H          -3.3190    4.4373    0.2695 H       1  UNL1        0.0618
     42 H          -1.9109    2.4694    0.1553 H       1  UNL1        0.0624
     43 H           1.7885   -3.9174   -0.2043 H       1  UNL1        0.0581
     44 H           3.7453    3.3000   -1.0568 H       1  UNL1        0.0655
     45 H           6.2942    4.0874   -0.5462 H       1  UNL1        0.0649
     46 H           7.4383    1.9104    0.7140 H       1  UNL1        0.1029
@<TRIPOS>BOND
     1     1     2    1
     2     2     3    2
     3     3     4   ar
     4     4     5   ar
     5     5     6   ar
     6     6     7   ar
     7     7     8   ar
     8     8     9   ar
     9     9    10   ar
    10    10    11   ar
    11    11    12   ar
    12    12    13   ar
    13    13    14   ar
    14    14    15   ar
    15    15    16   ar
    16    16    17   ar
    17    17    18   ar
    18    18    19   ar
    19    19    20   ar
    20    20    21   ar
    21    21    22   ar
    22    22    23   ar
    23    23    24   ar
    24     9    25   ar
    25    25    26   ar
    26    26    27    2
    27     4    28    1
    28    28    29   ar
    29    29    30   ar
    30    30    31   ar
    31    31    32   ar
    32    27     1    1
    33    32    28   ar
    34    26     3   ar
    35    25     6   ar
    36    24     8   ar
    37    14    10   ar
    38    24    15   ar
    39    23    18   ar
    40     1    33    1
    41     1    34    1
    42     2    35    1
    43     5    36    1
    44    16    37    1
    45    17    38    1
    46    19    39    1
    47    20    40    1
    48    21    41    1
    49    22    42    1
    50    27    43    1
    51    29    44    1
    52    30    45    1
    53    31    46    1
