@<TRIPOS>MOLECULE
*****
 47 54 0 0 0
SMALL
GASTEIGER

@<TRIPOS>ATOM
      1 C           3.2217   -3.1008    1.9112 C.3     1  UNL1       -0.0148
      2 C           3.7517   -1.9209    1.1436 C.2     1  UNL1       -0.0719
      3 C           2.7297   -1.2007    0.6522 C.ar    1  UNL1       -0.0132
      4 C           2.7537    0.0326   -0.1469 C.ar    1  UNL1       -0.0034
      5 C           1.5668    0.5836   -0.5090 C.ar    1  UNL1       -0.0103
      6 C           0.3549   -0.0568   -0.0972 C.ar    1  UNL1        0.1375
      7 O          -0.9122    0.3674   -0.3811 O.2     1  UNL1       -0.4540
      8 C          -1.8036   -0.5079    0.1820 C.ar    1  UNL1        0.1474
      9 C          -1.1072   -1.5189    0.8397 C.ar    1  UNL1        0.0472
     10 C          -1.8469   -2.5078    1.4750 C.ar    1  UNL1        0.0396
     11 N          -3.1992   -2.4741    1.4434 N.ar    1  UNL1       -0.2541
     12 C          -3.8455   -1.4857    0.8009 C.ar    1  UNL1        0.0751
     13 C          -5.2252   -1.5229    0.8150 C.ar    1  UNL1       -0.0350
     14 C          -5.9981   -0.5484    0.1803 C.ar    1  UNL1       -0.0520
     15 C          -5.3984    0.5148   -0.5010 C.ar    1  UNL1       -0.0171
     16 C          -6.2033    1.4803   -1.1295 C.ar    1  UNL1       -0.0540
     17 C          -5.6366    2.5512   -1.8150 C.ar    1  UNL1       -0.0612
     18 C          -4.2567    2.6681   -1.8789 C.ar    1  UNL1       -0.0611
     19 C          -3.4467    1.7131   -1.2574 C.ar    1  UNL1       -0.0533
     20 C          -3.9871    0.6086   -0.5508 C.ar    1  UNL1       -0.0052
     21 C          -3.2187   -0.4186    0.1164 C.ar    1  UNL1        0.0509
     22 C           0.2608   -1.2232    0.6556 C.ar    1  UNL1        0.0368
     23 C           1.4716   -1.8407    1.0617 C.ar    1  UNL1       -0.0098
     24 C           1.7337   -2.9369    1.7835 C.2     1  UNL1       -0.0718
     25 C           3.9860    0.6789   -0.6067 C.ar    1  UNL1        0.0291
     26 C           4.8932    0.0987   -1.4993 C.ar    1  UNL1        0.0375
     27 N           6.0688    0.6356   -1.9650 N.ar    1  UNL1       -0.2604
     28 C           6.4759    1.8760   -1.5635 C.ar    1  UNL1        0.0557
     29 C           5.6589    2.5847   -0.6599 C.ar    1  UNL1        0.1185
     30 N           5.8953    3.8070   -0.1566 N.ar    1  UNL1       -0.1892
     31 S           4.6225    4.1518    0.8519 S.2     1  UNL1        0.1165
     32 N           3.7168    2.7720    0.6908 N.ar    1  UNL1       -0.1901
     33 C           4.3744    1.9684   -0.1654 C.ar    1  UNL1        0.1105
     34 H           3.5541   -4.0421    1.4637 H       1  UNL1        0.0350
     35 H           3.5333   -3.0595    2.9590 H       1  UNL1        0.0350
     36 H           4.8039   -1.7069    1.0321 H       1  UNL1        0.0581
     37 H           1.4908    1.4890   -1.1015 H       1  UNL1        0.0661
     38 H          -1.4043   -3.3365    2.0140 H       1  UNL1        0.0837
     39 H          -5.7243   -2.3368    1.3369 H       1  UNL1        0.0639
     40 H          -7.0820   -0.6346    0.2280 H       1  UNL1        0.0624
     41 H          -7.2881    1.4043   -1.0888 H       1  UNL1        0.0624
     42 H          -6.2717    3.2902   -2.2957 H       1  UNL1        0.0618
     43 H          -3.8021    3.5001   -2.4102 H       1  UNL1        0.0618
     44 H          -2.3726    1.8520   -1.3364 H       1  UNL1        0.0624
     45 H           1.0151   -3.6092    2.2233 H       1  UNL1        0.0581
     46 H           4.6880   -0.8940   -1.9026 H       1  UNL1        0.0836
     47 H           7.4087    2.2554   -1.9590 H       1  UNL1        0.0852
@<TRIPOS>BOND
     1     1     2    1
     2     2     3    2
     3     3     4   ar
     4     4     5   ar
     5     5     6   ar
     6     6     7   ar
     7     7     8   ar
     8     8     9   ar
     9     9    10   ar
    10    10    11   ar
    11    11    12   ar
    12    12    13   ar
    13    13    14   ar
    14    14    15   ar
    15    15    16   ar
    16    16    17   ar
    17    17    18   ar
    18    18    19   ar
    19    19    20   ar
    20    20    21   ar
    21     9    22   ar
    22    22    23   ar
    23    23    24    2
    24     4    25    1
    25    25    26   ar
    26    26    27   ar
    27    27    28   ar
    28    28    29   ar
    29    29    30   ar
    30    30    31   ar
    31    31    32   ar
    32    32    33   ar
    33    24     1    1
    34    33    25   ar
    35    23     3   ar
    36    33    29   ar
    37    22     6   ar
    38    21     8   ar
    39    21    12   ar
    40    20    15   ar
    41     1    34    1
    42     1    35    1
    43     2    36    1
    44     5    37    1
    45    10    38    1
    46    13    39    1
    47    14    40    1
    48    16    41    1
    49    17    42    1
    50    18    43    1
    51    19    44    1
    52    24    45    1
    53    26    46    1
    54    28    47    1
