@<TRIPOS>MOLECULE
*****
 42 48 0 0 0
SMALL
GASTEIGER

@<TRIPOS>ATOM
      1 C           0.0392   -3.1453    0.7896 C.3     1  UNL1        0.0000
      2 C          -1.1204   -2.2207    0.9975 C.2     1  UNL1        0.0000
      3 C          -0.7168   -0.9481    0.8487 C.ar    1  UNL1        0.0000
      4 C          -1.5238    0.2745    0.9107 C.ar    1  UNL1        0.0000
      5 C          -0.9049    1.4548    0.6696 C.ar    1  UNL1        0.0000
      6 C           0.5009    1.4593    0.4006 C.ar    1  UNL1        0.0000
      7 O           1.2294    2.5918    0.1301 O.2     1  UNL1        0.0000
      8 C           2.5312    2.2200   -0.0364 C.ar    1  UNL1        0.0000
      9 C           3.5935    3.1069   -0.3253 C.ar    1  UNL1        0.0000
     10 C           4.9065    2.6156   -0.4497 C.ar    1  UNL1        0.0000
     11 C           4.9810    1.2446   -0.2383 C.ar    1  UNL1        0.0000
     12 C           6.1505    0.5231   -0.2608 C.ar    1  UNL1        0.0000
     13 N           5.8324   -0.7899    0.0288 N.ar    1  UNL1        0.0000
     14 C           4.4713   -0.9198    0.2407 C.ar    1  UNL1        0.0000
     15 C           3.9503    0.3247    0.0523 C.ar    1  UNL1        0.0000
     16 C           2.6245    0.8486    0.1373 C.ar    1  UNL1        0.0000
     17 C           1.3474    0.3353    0.3651 C.ar    1  UNL1        0.0000
     18 C           0.7295   -0.9320    0.5623 C.ar    1  UNL1        0.0000
     19 C           1.1652   -2.1962    0.4962 C.2     1  UNL1        0.0000
     20 C          -2.9307    0.3100    1.1496 C.ar    1  UNL1        0.0000
     21 S          -3.5571    0.7114    2.7214 S.2     1  UNL1        0.0000
     22 C          -5.2022    0.5303    2.2242 C.ar    1  UNL1        0.0000
     23 C          -5.2718    0.1696    0.9067 C.ar    1  UNL1        0.0000
     24 C          -6.4004   -0.0934    0.0680 C.2     1  UNL1        0.0000
     25 C          -6.0948   -0.4317   -1.2042 C.2     1  UNL1        0.0000
     26 SI         -4.1952   -0.4509   -1.4859 Si      1  UNL1        0.0000
     27 C          -3.9854    0.0488    0.3205 C.ar    1  UNL1        0.0000
     28 H           0.2434   -3.7337    1.6888 H       1  UNL1        0.0000
     29 H          -0.1398   -3.8150   -0.0568 H       1  UNL1        0.0000
     30 H          -2.1264   -2.5492    1.2124 H       1  UNL1        0.0000
     31 H          -1.4303    2.4037    0.6749 H       1  UNL1        0.0000
     32 H           3.3894    4.1667   -0.4440 H       1  UNL1        0.0000
     33 H           5.7510    3.2565   -0.6643 H       1  UNL1        0.0000
     34 H           7.1779    0.8102   -0.4397 H       1  UNL1        0.0000
     35 H           6.5025   -1.5448    0.0982 H       1  UNL1        0.0000
     36 H           4.0662   -1.8765    0.5196 H       1  UNL1        0.0000
     37 H           2.1535   -2.5321    0.2496 H       1  UNL1        0.0000
     38 H          -6.0041    0.6979    2.9291 H       1  UNL1        0.0000
     39 H          -7.4178   -0.0231    0.4349 H       1  UNL1        0.0000
     40 H          -6.7732   -0.6704   -2.0071 H       1  UNL1        0.0000
     41 H          -3.8063    0.5966   -2.4625 H       1  UNL1        0.0000
     42 H          -3.7352   -1.8282   -1.7956 H       1  UNL1        0.0000
@<TRIPOS>BOND
     1     1     2    1
     2     2     3    2
     3     3     4   ar
     4     4     5   ar
     5     5     6   ar
     6     6     7   ar
     7     7     8   ar
     8     8     9   ar
     9     9    10   ar
    10    10    11   ar
    11    11    12   ar
    12    12    13   ar
    13    13    14   ar
    14    14    15   ar
    15    15    16   ar
    16    16    17   ar
    17    17    18   ar
    18    18    19    2
    19     4    20    1
    20    20    21   ar
    21    21    22   ar
    22    22    23   ar
    23    23    24    1
    24    24    25    2
    25    25    26    1
    26    26    27    1
    27    19     1    1
    28    27    20   ar
    29    18     3   ar
    30    27    23   ar
    31    17     6   ar
    32    16     8   ar
    33    15    11   ar
    34     1    28    1
    35     1    29    1
    36     2    30    1
    37     5    31    1
    38     9    32    1
    39    10    33    1
    40    12    34    1
    41    13    35    1
    42    14    36    1
    43    19    37    1
    44    22    38    1
    45    24    39    1
    46    25    40    1
    47    26    41    1
    48    26    42    1
