@<TRIPOS>MOLECULE
*****
 47 54 0 0 0
SMALL
GASTEIGER

@<TRIPOS>ATOM
      1 C           3.2662    2.1573    1.8844 C.3     1  UNL1        0.0000
      2 C           3.9904    1.2435    0.9437 C.2     1  UNL1        0.0000
      3 C           3.1107    0.5100    0.2395 C.ar    1  UNL1        0.0000
      4 C           3.3599   -0.5906   -0.7052 C.ar    1  UNL1        0.0000
      5 C           2.2763   -1.2898   -1.1324 C.ar    1  UNL1        0.0000
      6 C           0.9635   -0.8890   -0.7180 C.ar    1  UNL1        0.0000
      7 S          -0.4240   -1.7616   -1.1662 S.2     1  UNL1        0.0000
      8 C          -1.4734   -0.7126   -0.3222 C.ar    1  UNL1        0.0000
      9 C          -0.7790    0.4258    0.0966 C.ar    1  UNL1        0.0000
     10 C           0.6370    0.2091    0.0694 C.ar    1  UNL1        0.0000
     11 C           1.7482    0.9081    0.6409 C.ar    1  UNL1        0.0000
     12 C           1.8314    1.8162    1.6238 C.2     1  UNL1        0.0000
     13 C          -1.5457    1.5773    0.4966 C.ar    1  UNL1        0.0000
     14 C          -1.1008    2.8471    0.5938 C.2     1  UNL1        0.0000
     15 SI         -2.4467    4.0367    1.0586 Si      1  UNL1        0.0000
     16 C          -3.6438    2.6115    0.9615 C.2     1  UNL1        0.0000
     17 C          -3.0246    1.4498    0.6511 C.ar    1  UNL1        0.0000
     18 C          -3.7295    0.1594    0.3746 C.ar    1  UNL1        0.0000
     19 C          -5.1443    0.0372    0.6177 C.ar    1  UNL1        0.0000
     20 C          -5.9000   -1.1267    0.3836 C.ar    1  UNL1        0.0000
     21 C          -5.1147   -2.1697   -0.0930 C.ar    1  UNL1        0.0000
     22 C          -5.6682   -3.3993   -0.3530 C.ar    1  UNL1        0.0000
     23 S          -4.4814   -4.5110   -0.8807 S.2     1  UNL1        0.0000
     24 C          -3.2300   -3.3359   -0.7515 C.ar    1  UNL1        0.0000
     25 C          -3.6855   -2.1007   -0.3471 C.ar    1  UNL1        0.0000
     26 C          -2.9247   -0.9207   -0.1436 C.ar    1  UNL1        0.0000
     27 C           4.6978   -1.0025   -1.2079 C.ar    1  UNL1        0.0000
     28 N           5.6533   -0.0708   -1.2775 N.ar    1  UNL1        0.0000
     29 C           6.8192   -0.4996   -1.7529 C.ar    1  UNL1        0.0000
     30 N           7.0975   -1.7383   -2.1470 N.ar    1  UNL1        0.0000
     31 C           6.0734   -2.5783   -2.0359 C.ar    1  UNL1        0.0000
     32 N           4.8592   -2.2778   -1.5835 N.ar    1  UNL1        0.0000
     33 H           3.5372    1.9433    2.9224 H       1  UNL1        0.0000
     34 H           3.4726    3.2073    1.6582 H       1  UNL1        0.0000
     35 H           5.0663    1.1694    0.9028 H       1  UNL1        0.0000
     36 H           2.3718   -2.1289   -1.8163 H       1  UNL1        0.0000
     37 H           1.0127    2.2234    2.1940 H       1  UNL1        0.0000
     38 H          -0.1069    3.2104    0.3959 H       1  UNL1        0.0000
     39 H          -2.2967    4.5556    2.4394 H       1  UNL1        0.0000
     40 H          -2.6985    5.0586    0.0149 H       1  UNL1        0.0000
     41 H          -4.6956    2.8024    1.0888 H       1  UNL1        0.0000
     42 H          -5.6939    0.8880    1.0165 H       1  UNL1        0.0000
     43 H          -6.9630   -1.1803    0.5794 H       1  UNL1        0.0000
     44 H          -6.6979   -3.7147   -0.2546 H       1  UNL1        0.0000
     45 H          -2.2367   -3.6749   -0.9901 H       1  UNL1        0.0000
     46 H           7.6180    0.2306   -1.8254 H       1  UNL1        0.0000
     47 H           6.2427   -3.6045   -2.3442 H       1  UNL1        0.0000
@<TRIPOS>BOND
     1     1     2    1
     2     2     3    2
     3     3     4   ar
     4     4     5   ar
     5     5     6   ar
     6     6     7   ar
     7     7     8   ar
     8     8     9   ar
     9     9    10   ar
    10    10    11   ar
    11    11    12    2
    12     9    13   ar
    13    13    14    2
    14    14    15    1
    15    15    16    1
    16    16    17    2
    17    17    18   ar
    18    18    19   ar
    19    19    20   ar
    20    20    21   ar
    21    21    22   ar
    22    22    23   ar
    23    23    24   ar
    24    24    25   ar
    25    25    26   ar
    26     4    27    1
    27    27    28   ar
    28    28    29   ar
    29    29    30   ar
    30    30    31   ar
    31    31    32   ar
    32    12     1    1
    33    17    13   ar
    34    26    18   ar
    35    32    27   ar
    36    11     3   ar
    37    25    21   ar
    38    10     6   ar
    39    26     8   ar
    40     1    33    1
    41     1    34    1
    42     2    35    1
    43     5    36    1
    44    12    37    1
    45    14    38    1
    46    15    39    1
    47    15    40    1
    48    16    41    1
    49    19    42    1
    50    20    43    1
    51    22    44    1
    52    24    45    1
    53    29    46    1
    54    31    47    1
