@<TRIPOS>MOLECULE
*****
 45 52 0 0 0
SMALL
GASTEIGER

@<TRIPOS>ATOM
      1 C          -1.6312    3.1368   -0.0382 C.3     1  UNL1       -0.0148
      2 C          -2.4893    1.9458   -0.3324 C.2     1  UNL1       -0.0719
      3 C          -1.7346    0.8344   -0.3406 C.ar    1  UNL1       -0.0129
      4 C          -2.1694   -0.5602   -0.4506 C.ar    1  UNL1       -0.0022
      5 C          -1.2309   -1.5221   -0.2740 C.ar    1  UNL1       -0.0386
      6 C           0.1380   -1.1385   -0.0725 C.ar    1  UNL1        0.0217
      7 S           1.3422   -2.3061    0.2450 S.2     1  UNL1       -0.0875
      8 C           2.6241   -1.1361    0.2208 C.ar    1  UNL1        0.0303
      9 C           2.0635    0.1141   -0.0559 C.ar    1  UNL1        0.0088
     10 C           3.0145    1.1660   -0.2896 C.ar    1  UNL1        0.0293
     11 C           2.8789    2.4311   -0.7744 C.ar    1  UNL1        0.1000
     12 O           4.1202    3.0097   -0.8245 O.2     1  UNL1       -0.4698
     13 C           5.0248    2.0695   -0.4113 C.ar    1  UNL1        0.1000
     14 C           4.3818    0.8923   -0.1034 C.ar    1  UNL1        0.0283
     15 C           4.9951   -0.3152    0.2719 C.ar    1  UNL1       -0.0032
     16 C           6.3690   -0.5626    0.4646 C.ar    1  UNL1       -0.0352
     17 C           6.7495   -1.8501    0.7955 C.ar    1  UNL1        0.0282
     18 N           5.8860   -2.8787    0.9381 N.ar    1  UNL1       -0.2626
     19 C           4.5677   -2.6151    0.7440 C.ar    1  UNL1        0.0364
     20 C           4.0455   -1.3579    0.4135 C.ar    1  UNL1        0.0152
     21 C           0.6495    0.1593   -0.0769 C.ar    1  UNL1        0.0051
     22 C          -0.3257    1.2074   -0.1259 C.ar    1  UNL1       -0.0124
     23 C          -0.2702    2.5238    0.1211 C.2     1  UNL1       -0.0719
     24 C          -3.5180   -0.9829   -0.6482 C.ar    1  UNL1        0.0291
     25 S          -4.0197   -1.8113   -2.1104 S.2     1  UNL1       -0.0939
     26 C          -5.6781   -1.9447   -1.6123 C.ar    1  UNL1        0.0002
     27 C          -5.7916   -1.3704   -0.3992 C.ar    1  UNL1        0.0542
     28 N          -6.9246   -1.2548    0.3516 N.ar    1  UNL1       -0.3602
     29 C          -6.4371   -0.5885    1.4751 C.ar    1  UNL1        0.0028
     30 C          -5.0533   -0.3309    1.3673 C.ar    1  UNL1       -0.0356
     31 C          -4.6273   -0.8514    0.1175 C.ar    1  UNL1        0.0144
     32 H          -1.6482    3.8549   -0.8630 H       1  UNL1        0.0350
     33 H          -1.9492    3.6284    0.8860 H       1  UNL1        0.0350
     34 H          -3.5620    1.9902   -0.4483 H       1  UNL1        0.0581
     35 H          -1.4879   -2.5778   -0.2963 H       1  UNL1        0.0635
     36 H           2.0773    3.0493   -1.1458 H       1  UNL1        0.1036
     37 H           6.0562    2.3924   -0.4275 H       1  UNL1        0.1036
     38 H           7.1139    0.2161    0.3571 H       1  UNL1        0.0639
     39 H           7.7944   -2.1004    0.9569 H       1  UNL1        0.0830
     40 H           3.9287   -3.4843    0.8746 H       1  UNL1        0.0836
     41 H           0.5868    3.0917    0.4399 H       1  UNL1        0.0581
     42 H          -6.4315   -2.4184   -2.2255 H       1  UNL1        0.0714
     43 H          -7.8581   -1.5774    0.1284 H       1  UNL1        0.1653
     44 H          -7.1215   -0.3474    2.2784 H       1  UNL1        0.0807
     45 H          -4.4484    0.1700    2.1119 H       1  UNL1        0.0639
@<TRIPOS>BOND
     1     1     2    1
     2     2     3    2
     3     3     4   ar
     4     4     5   ar
     5     5     6   ar
     6     6     7   ar
     7     7     8   ar
     8     8     9   ar
     9     9    10   ar
    10    10    11   ar
    11    11    12   ar
    12    12    13   ar
    13    13    14   ar
    14    14    15   ar
    15    15    16   ar
    16    16    17   ar
    17    17    18   ar
    18    18    19   ar
    19    19    20   ar
    20     9    21   ar
    21    21    22   ar
    22    22    23    2
    23     4    24    1
    24    24    25   ar
    25    25    26   ar
    26    26    27   ar
    27    27    28   ar
    28    28    29   ar
    29    29    30   ar
    30    30    31   ar
    31    23     1    1
    32    31    24   ar
    33    22     3   ar
    34    31    27   ar
    35    21     6   ar
    36    20     8   ar
    37    14    10   ar
    38    20    15   ar
    39     1    32    1
    40     1    33    1
    41     2    34    1
    42     5    35    1
    43    11    36    1
    44    13    37    1
    45    16    38    1
    46    17    39    1
    47    19    40    1
    48    23    41    1
    49    26    42    1
    50    28    43    1
    51    29    44    1
    52    30    45    1
