@<TRIPOS>MOLECULE
*****
 44 50 0 0 0
SMALL
GASTEIGER

@<TRIPOS>ATOM
      1 C          -0.8440   -3.1062   -1.5307 C.3     1  UNL1       -0.0148
      2 C          -1.8223   -2.0319   -1.1630 C.2     1  UNL1       -0.0719
      3 C          -1.1713   -1.0006   -0.6012 C.ar    1  UNL1       -0.0134
      4 C          -1.7160    0.2552   -0.0901 C.ar    1  UNL1       -0.0088
      5 C          -0.8532    1.1624    0.4254 C.ar    1  UNL1       -0.0391
      6 C           0.5465    0.8457    0.4619 C.ar    1  UNL1        0.0217
      7 S           1.6888    1.9294    1.1032 S.2     1  UNL1       -0.0879
      8 C           2.9985    0.8629    0.7900 C.ar    1  UNL1        0.0245
      9 C           4.3548    1.0796    1.0663 C.ar    1  UNL1       -0.0222
     10 C           5.0524    2.2579    1.6936 C.3     1  UNL1       -0.0075
     11 C           6.4868    1.7896    1.6688 C.2     1  UNL1       -0.0791
     12 C           6.6240    0.5672    1.1311 C.2     1  UNL1       -0.0579
     13 C           5.3026    0.1003    0.7455 C.ar    1  UNL1       -0.0208
     14 C           4.9373   -1.0872    0.1581 C.ar    1  UNL1       -0.0537
     15 C           3.5805   -1.3055   -0.1190 C.ar    1  UNL1       -0.0523
     16 C           2.5765   -0.3367    0.1892 C.ar    1  UNL1       -0.0022
     17 C           1.1469   -0.3253    0.0068 C.ar    1  UNL1        0.0044
     18 C           0.2662   -1.3071   -0.5566 C.ar    1  UNL1       -0.0124
     19 C           0.4672   -2.5203   -1.0900 C.2     1  UNL1       -0.0719
     20 C          -3.1345    0.6094   -0.1196 C.ar    1  UNL1       -0.0091
     21 C          -3.7226    1.4503   -1.0947 C.ar    1  UNL1       -0.0534
     22 C          -5.1157    1.7818   -1.1233 C.ar    1  UNL1       -0.0606
     23 C          -6.0597    1.3073   -0.1861 C.ar    1  UNL1       -0.0535
     24 C          -5.4741    0.4769    0.7705 C.ar    1  UNL1       -0.0103
     25 C          -6.1954   -0.1043    1.7836 C.ar    1  UNL1       -0.0166
     26 S          -5.1884   -1.0653    2.7925 S.2     1  UNL1       -0.1039
     27 C          -3.7836   -0.6984    1.8700 C.ar    1  UNL1       -0.0160
     28 C          -4.0724    0.1338    0.8129 C.ar    1  UNL1       -0.0032
     29 H          -1.0593   -4.0355   -0.9952 H       1  UNL1        0.0350
     30 H          -0.8492   -3.2918   -2.6088 H       1  UNL1        0.0350
     31 H          -2.8867   -2.0982   -1.3317 H       1  UNL1        0.0581
     32 H          -1.1963    2.1162    0.8166 H       1  UNL1        0.0635
     33 H           4.7106    2.4216    2.7194 H       1  UNL1        0.0356
     34 H           4.9241    3.1619    1.0915 H       1  UNL1        0.0356
     35 H           7.3046    2.3862    2.0475 H       1  UNL1        0.0575
     36 H           7.5365    0.0094    0.9974 H       1  UNL1        0.0621
     37 H           5.6757   -1.8430   -0.0881 H       1  UNL1        0.0624
     38 H           3.3037   -2.2464   -0.5820 H       1  UNL1        0.0624
     39 H           1.4040   -3.0357   -1.2081 H       1  UNL1        0.0581
     40 H          -3.0851    1.8695   -1.8745 H       1  UNL1        0.0624
     41 H          -5.4660    2.4396   -1.9199 H       1  UNL1        0.0618
     42 H          -7.1083    1.5707   -0.2272 H       1  UNL1        0.0624
     43 H          -7.2525   -0.0256    1.9968 H       1  UNL1        0.0699
     44 H          -2.8315   -1.1198    2.1632 H       1  UNL1        0.0700
@<TRIPOS>BOND
     1     1     2    1
     2     2     3    2
     3     3     4   ar
     4     4     5   ar
     5     5     6   ar
     6     6     7   ar
     7     7     8   ar
     8     8     9   ar
     9     9    10    1
    10    10    11    1
    11    11    12    2
    12    12    13    1
    13    13    14   ar
    14    14    15   ar
    15    15    16   ar
    16    16    17   ar
    17    17    18   ar
    18    18    19    2
    19     4    20    1
    20    20    21   ar
    21    21    22   ar
    22    22    23   ar
    23    23    24   ar
    24    24    25   ar
    25    25    26   ar
    26    26    27   ar
    27    27    28   ar
    28    19     1    1
    29    28    20   ar
    30    18     3   ar
    31    28    24   ar
    32    17     6   ar
    33    16     8   ar
    34    13     9   ar
    35     1    29    1
    36     1    30    1
    37     2    31    1
    38     5    32    1
    39    10    33    1
    40    10    34    1
    41    11    35    1
    42    12    36    1
    43    14    37    1
    44    15    38    1
    45    19    39    1
    46    21    40    1
    47    22    41    1
    48    23    42    1
    49    25    43    1
    50    27    44    1
