@<TRIPOS>MOLECULE
*****
 41 47 0 0 0
SMALL
GASTEIGER

@<TRIPOS>ATOM
      1 C          -0.7934    3.3281    0.5754 C.3     1  UNL1       -0.0148
      2 C          -1.7663    2.3022    0.0606 C.2     1  UNL1       -0.0719
      3 C          -1.1159    1.1628   -0.2291 C.ar    1  UNL1       -0.0128
      4 C          -1.6356   -0.1051   -0.7631 C.ar    1  UNL1       -0.0025
      5 C          -0.7549   -1.1176   -0.9844 C.ar    1  UNL1       -0.0385
      6 C           0.6381   -0.9072   -0.6953 C.ar    1  UNL1        0.0247
      7 S           1.8297   -2.1306   -0.9474 S.2     1  UNL1       -0.0843
      8 C           3.0736   -1.0592   -0.3710 C.ar    1  UNL1        0.0662
      9 C           4.4739   -1.0259   -0.1419 C.ar    1  UNL1        0.0345
     10 C           5.5584   -1.9045   -0.2889 C.ar    1  UNL1       -0.0499
     11 C           6.8338   -1.4493    0.0720 C.ar    1  UNL1       -0.0609
     12 C           7.0237   -0.1555    0.5654 C.ar    1  UNL1       -0.0582
     13 C           5.9483    0.7276    0.7155 C.ar    1  UNL1       -0.0187
     14 C           4.6880    0.2539    0.3503 C.ar    1  UNL1        0.1368
     15 O           3.5389    0.9818    0.4335 O.2     1  UNL1       -0.4536
     16 C           2.5583    0.1474   -0.0186 C.ar    1  UNL1        0.1515
     17 C           1.1747    0.2704   -0.1895 C.ar    1  UNL1        0.0395
     18 C           0.3071    1.3572    0.0632 C.ar    1  UNL1       -0.0094
     19 C           0.5158    2.5937    0.5298 C.2     1  UNL1       -0.0718
     20 C          -3.0161   -0.3621   -1.0276 C.ar    1  UNL1        0.0240
     21 S          -3.6038   -0.5323   -2.6592 S.2     1  UNL1       -0.0958
     22 C          -5.2374   -0.7814   -2.1556 C.ar    1  UNL1       -0.0163
     23 C          -5.3040   -0.7240   -0.7986 C.ar    1  UNL1       -0.0142
     24 C          -6.3241   -0.8441    0.1766 C.2     1  UNL1       -0.0574
     25 C          -5.7817   -0.6923    1.4066 C.2     1  UNL1       -0.0791
     26 C          -4.2709   -0.4453    1.3240 C.3     1  UNL1       -0.0075
     27 C          -4.0693   -0.4864   -0.1539 C.ar    1  UNL1       -0.0217
     28 H          -1.0422    3.6268    1.5979 H       1  UNL1        0.0350
     29 H          -0.7729    4.2094   -0.0725 H       1  UNL1        0.0350
     30 H          -2.8247    2.4790   -0.0592 H       1  UNL1        0.0581
     31 H          -1.0782   -2.0831   -1.3631 H       1  UNL1        0.0635
     32 H           5.4167   -2.9105   -0.6721 H       1  UNL1        0.0625
     33 H           7.6885   -2.1144   -0.0344 H       1  UNL1        0.0618
     34 H           8.0247    0.1729    0.8380 H       1  UNL1        0.0619
     35 H           6.0813    1.7331    1.0965 H       1  UNL1        0.0654
     36 H           1.4678    3.0102    0.8220 H       1  UNL1        0.0581
     37 H          -6.0227   -0.9473   -2.8791 H       1  UNL1        0.0699
     38 H          -7.3671   -1.0287   -0.0382 H       1  UNL1        0.0621
     39 H          -6.3265   -0.7367    2.3379 H       1  UNL1        0.0575
     40 H          -4.0150    0.5308    1.7449 H       1  UNL1        0.0356
     41 H          -3.7187   -1.2403    1.8326 H       1  UNL1        0.0356
@<TRIPOS>BOND
     1     1     2    1
     2     2     3    2
     3     3     4   ar
     4     4     5   ar
     5     5     6   ar
     6     6     7   ar
     7     7     8   ar
     8     8     9   ar
     9     9    10   ar
    10    10    11   ar
    11    11    12   ar
    12    12    13   ar
    13    13    14   ar
    14    14    15   ar
    15    15    16   ar
    16    16    17   ar
    17    17    18   ar
    18    18    19    2
    19     4    20    1
    20    20    21   ar
    21    21    22   ar
    22    22    23   ar
    23    23    24    1
    24    24    25    2
    25    25    26    1
    26    26    27    1
    27    19     1    1
    28    27    20   ar
    29    18     3   ar
    30    27    23   ar
    31    17     6   ar
    32    16     8   ar
    33    14     9   ar
    34     1    28    1
    35     1    29    1
    36     2    30    1
    37     5    31    1
    38    10    32    1
    39    11    33    1
    40    12    34    1
    41    13    35    1
    42    19    36    1
    43    22    37    1
    44    24    38    1
    45    25    39    1
    46    26    40    1
    47    26    41    1
