@<TRIPOS>MOLECULE
*****
 38 44 0 0 0
SMALL
GASTEIGER

@<TRIPOS>ATOM
      1 C          -0.0028   -3.3144    0.1135 C.3     1  UNL1        0.0000
      2 C          -1.0287   -2.2746   -0.2478 C.2     1  UNL1        0.0000
      3 C          -0.4400   -1.0716   -0.3557 C.ar    1  UNL1        0.0000
      4 C          -1.0297    0.2335   -0.6926 C.ar    1  UNL1        0.0000
      5 C          -0.2113    1.3188   -0.7434 C.ar    1  UNL1        0.0000
      6 C           1.1910    1.1472   -0.4752 C.ar    1  UNL1        0.0000
      7 S           2.3183    2.4866   -0.5229 S.2     1  UNL1        0.0000
      8 C           3.5074    1.3947   -0.1246 C.ar    1  UNL1        0.0000
      9 C           4.8041    1.4489    0.0866 C.ar    1  UNL1        0.0000
     10 O           5.6948    2.4424    0.0608 O.2     1  UNL1        0.0000
     11 C           6.8578    1.7640    0.3809 C.ar    1  UNL1        0.0000
     12 C           6.6692    0.3980    0.5942 C.ar    1  UNL1        0.0000
     13 C           5.2929    0.2581    0.3845 C.ar    1  UNL1        0.0000
     14 O           4.2760   -0.6397    0.3728 O.2     1  UNL1        0.0000
     15 C           3.1700    0.1059    0.0497 C.ar    1  UNL1        0.0000
     16 C           1.7964   -0.0768   -0.1514 C.ar    1  UNL1        0.0000
     17 C           0.9905   -1.2334   -0.0812 C.ar    1  UNL1        0.0000
     18 C           1.2656   -2.5135    0.1930 C.2     1  UNL1        0.0000
     19 C          -2.4228    0.4483   -0.9384 C.ar    1  UNL1        0.0000
     20 S          -2.9927    0.7519   -2.5581 S.2     1  UNL1        0.0000
     21 C          -4.6423    0.8715   -2.0686 C.ar    1  UNL1        0.0000
     22 C          -4.7310    0.6767   -0.7261 C.ar    1  UNL1        0.0000
     23 SI         -6.1121    0.6388    0.5521 Si      1  UNL1        0.0000
     24 C          -4.7873    0.2817    1.8850 C.2     1  UNL1        0.0000
     25 C          -3.5492    0.2230    1.3467 C.2     1  UNL1        0.0000
     26 C          -3.4937    0.4340   -0.0716 C.ar    1  UNL1        0.0000
     27 H          -0.2365   -3.7784    1.0762 H       1  UNL1        0.0000
     28 H           0.0656   -4.0840   -0.6609 H       1  UNL1        0.0000
     29 H          -2.0771   -2.4850   -0.3984 H       1  UNL1        0.0000
     30 H          -0.5908    2.3105   -0.9732 H       1  UNL1        0.0000
     31 H           7.7375    2.3939    0.4178 H       1  UNL1        0.0000
     32 H           7.4104   -0.3412    0.8536 H       1  UNL1        0.0000
     33 H           2.2378   -2.9185    0.4297 H       1  UNL1        0.0000
     34 H          -5.4191    1.0711   -2.7943 H       1  UNL1        0.0000
     35 H          -6.7592    1.9540    0.7840 H       1  UNL1        0.0000
     36 H          -7.0400   -0.5101    0.4053 H       1  UNL1        0.0000
     37 H          -5.0619    0.1554    2.9198 H       1  UNL1        0.0000
     38 H          -2.6571    0.0322    1.9330 H       1  UNL1        0.0000
@<TRIPOS>BOND
     1     1     2    1
     2     2     3    2
     3     3     4   ar
     4     4     5   ar
     5     5     6   ar
     6     6     7   ar
     7     7     8   ar
     8     8     9   ar
     9     9    10   ar
    10    10    11   ar
    11    11    12   ar
    12    12    13   ar
    13    13    14   ar
    14    14    15   ar
    15    15    16   ar
    16    16    17   ar
    17    17    18    2
    18     4    19    1
    19    19    20   ar
    20    20    21   ar
    21    21    22   ar
    22    22    23    1
    23    23    24    1
    24    24    25    2
    25    25    26    1
    26    18     1    1
    27    26    19   ar
    28    17     3   ar
    29    26    22   ar
    30    16     6   ar
    31    15     8   ar
    32    13     9   ar
    33     1    27    1
    34     1    28    1
    35     2    29    1
    36     5    30    1
    37    11    31    1
    38    12    32    1
    39    18    33    1
    40    21    34    1
    41    23    35    1
    42    23    36    1
    43    24    37    1
    44    25    38    1
