@<TRIPOS>MOLECULE
*****
 46 53 0 0 0
SMALL
GASTEIGER

@<TRIPOS>ATOM
      1 SI          0.4882   -3.7994    0.6680 Si      1  UNL1        0.0000
      2 C           1.7615   -2.4539    0.5070 C.2     1  UNL1        0.0000
      3 C           1.1948   -1.2659    0.2073 C.ar    1  UNL1        0.0000
      4 C           1.9475   -0.0706   -0.1710 C.ar    1  UNL1        0.0000
      5 C           1.2722    0.9729   -0.6964 C.ar    1  UNL1        0.0000
      6 C          -0.1938    0.9714   -0.7718 C.ar    1  UNL1        0.0000
      7 C          -0.9252    1.9991   -1.3672 C.ar    1  UNL1        0.0000
      8 C          -0.4516    3.0851   -2.0606 C.ar    1  UNL1        0.0000
      9 O          -1.4950    3.8467   -2.5019 O.2     1  UNL1        0.0000
     10 C          -2.6454    3.2458   -2.0786 C.ar    1  UNL1        0.0000
     11 C          -2.3487    2.1035   -1.3764 C.ar    1  UNL1        0.0000
     12 C          -3.2487    1.2299   -0.7292 C.ar    1  UNL1        0.0000
     13 C          -4.6951    1.4299   -0.7253 C.ar    1  UNL1        0.0000
     14 C          -5.5916    0.6375    0.0089 C.ar    1  UNL1        0.0000
     15 C          -4.8882   -0.2903    0.7549 C.ar    1  UNL1        0.0000
     16 C          -5.4386   -1.1254    1.6899 C.ar    1  UNL1        0.0000
     17 O          -4.4440   -1.8058    2.3276 O.2     1  UNL1        0.0000
     18 C          -3.2581   -1.3985    1.7841 C.ar    1  UNL1        0.0000
     19 C          -3.4728   -0.5203    0.7480 C.ar    1  UNL1        0.0000
     20 C          -2.5033    0.1608   -0.0517 C.ar    1  UNL1        0.0000
     21 C          -1.0389   -0.0327   -0.1952 C.ar    1  UNL1        0.0000
     22 C          -0.2946   -1.2824    0.1528 C.ar    1  UNL1        0.0000
     23 C          -0.8117   -2.5261    0.2451 C.2     1  UNL1        0.0000
     24 C           3.4096    0.0451   -0.1003 C.ar    1  UNL1        0.0000
     25 C           4.2496   -0.1011   -1.2261 C.ar    1  UNL1        0.0000
     26 C           5.6589   -0.0061   -1.1558 C.ar    1  UNL1        0.0000
     27 C           6.3514    0.2394    0.0427 C.ar    1  UNL1        0.0000
     28 C           5.5604    0.3908    1.2080 C.ar    1  UNL1        0.0000
     29 N           6.0287    0.6264    2.4432 N.ar    1  UNL1        0.0000
     30 S           4.7017    0.7189    3.4370 S.2     1  UNL1        0.0000
     31 N           3.4765    0.4668    2.3491 N.ar    1  UNL1        0.0000
     32 C           4.0526    0.2928    1.1460 C.ar    1  UNL1        0.0000
     33 H           0.3536   -4.3021    2.0561 H       1  UNL1        0.0000
     34 H           0.6241   -4.8373   -0.3823 H       1  UNL1        0.0000
     35 H           2.8136   -2.6827    0.5654 H       1  UNL1        0.0000
     36 H           1.7957    1.8677   -1.0161 H       1  UNL1        0.0000
     37 H           0.5283    3.4515   -2.3315 H       1  UNL1        0.0000
     38 H          -3.5553    3.7611   -2.3510 H       1  UNL1        0.0000
     39 H          -5.1153    2.2528   -1.3029 H       1  UNL1        0.0000
     40 H          -6.6591    0.8021    0.0329 H       1  UNL1        0.0000
     41 H          -6.4402   -1.3199    2.0465 H       1  UNL1        0.0000
     42 H          -2.3834   -1.8117    2.2645 H       1  UNL1        0.0000
     43 H          -1.8314   -2.8385    0.0941 H       1  UNL1        0.0000
     44 H           3.7941   -0.3035   -2.1966 H       1  UNL1        0.0000
     45 H           6.2349   -0.1322   -2.0732 H       1  UNL1        0.0000
     46 H           7.4320    0.3083    0.0815 H       1  UNL1        0.0000
@<TRIPOS>BOND
     1     1     2    1
     2     2     3    2
     3     3     4   ar
     4     4     5   ar
     5     5     6   ar
     6     6     7   ar
     7     7     8   ar
     8     8     9   ar
     9     9    10   ar
    10    10    11   ar
    11    11    12   ar
    12    12    13   ar
    13    13    14   ar
    14    14    15   ar
    15    15    16   ar
    16    16    17   ar
    17    17    18   ar
    18    18    19   ar
    19    19    20   ar
    20    20    21   ar
    21    21    22   ar
    22    22    23    2
    23     4    24    1
    24    24    25   ar
    25    25    26   ar
    26    26    27   ar
    27    27    28   ar
    28    28    29   ar
    29    29    30   ar
    30    30    31   ar
    31    31    32   ar
    32    23     1    1
    33    32    24   ar
    34    22     3   ar
    35    32    28   ar
    36    21     6   ar
    37    11     7   ar
    38    20    12   ar
    39    19    15   ar
    40     1    33    1
    41     1    34    1
    42     2    35    1
    43     5    36    1
    44     8    37    1
    45    10    38    1
    46    13    39    1
    47    14    40    1
    48    16    41    1
    49    18    42    1
    50    23    43    1
    51    25    44    1
    52    26    45    1
    53    27    46    1
