@<TRIPOS>MOLECULE
*****
 38 43 0 0 0
SMALL
GASTEIGER

@<TRIPOS>ATOM
      1 C           2.7979   -1.9167   -2.0185 C.3     1  UNL1        0.0000
      2 C           1.5019   -1.3755   -1.4809 C.2     1  UNL1        0.0000
      3 C           1.7511   -0.4895   -0.5028 C.ar    1  UNL1        0.0000
      4 C           0.8164    0.2906    0.3121 C.ar    1  UNL1        0.0000
      5 C           1.3247    1.1434    1.2372 C.ar    1  UNL1        0.0000
      6 C           2.7500    1.2324    1.3857 C.ar    1  UNL1        0.0000
      7 S           3.5051    2.2631    2.5212 S.2     1  UNL1        0.0000
      8 C           5.0702    1.7548    2.0366 C.ar    1  UNL1        0.0000
      9 C           5.0297    0.8163    1.0267 C.ar    1  UNL1        0.0000
     10 C           3.6938    0.5190    0.6556 C.ar    1  UNL1        0.0000
     11 C           3.2029   -0.3808   -0.3321 C.ar    1  UNL1        0.0000
     12 C           3.8254   -1.1949   -1.1936 C.2     1  UNL1        0.0000
     13 C          -0.6373    0.2239    0.1815 C.ar    1  UNL1        0.0000
     14 C          -1.4413    1.2130   -0.4475 C.ar    1  UNL1        0.0000
     15 C          -2.8628    1.0891   -0.5581 C.ar    1  UNL1        0.0000
     16 SI         -4.0902    2.2907   -1.3554 Si      1  UNL1        0.0000
     17 C          -5.4883    1.0993   -0.8930 C.2     1  UNL1        0.0000
     18 C          -5.0651   -0.0051   -0.2493 C.2     1  UNL1        0.0000
     19 C          -3.6216   -0.0165   -0.0629 C.ar    1  UNL1        0.0000
     20 C          -2.8192   -0.9697    0.5448 C.ar    1  UNL1        0.0000
     21 C          -3.1724   -2.1538    1.1327 C.ar    1  UNL1        0.0000
     22 O          -2.0508   -2.7794    1.6083 O.2     1  UNL1        0.0000
     23 C          -0.9751   -1.9823    1.3197 C.ar    1  UNL1        0.0000
     24 C          -1.3964   -0.8560    0.6606 C.ar    1  UNL1        0.0000
     25 H           2.8634   -2.9986   -1.8703 H       1  UNL1        0.0000
     26 H           2.9108   -1.6819   -3.0810 H       1  UNL1        0.0000
     27 H           0.5279   -1.6702   -1.8417 H       1  UNL1        0.0000
     28 H           0.6844    1.7503    1.8707 H       1  UNL1        0.0000
     29 H           5.9441    2.1712    2.5181 H       1  UNL1        0.0000
     30 H           5.9156    0.3758    0.5878 H       1  UNL1        0.0000
     31 H           4.8915   -1.3223   -1.2955 H       1  UNL1        0.0000
     32 H          -0.9513    2.0934   -0.8644 H       1  UNL1        0.0000
     33 H          -3.9128    2.3947   -2.8250 H       1  UNL1        0.0000
     34 H          -4.1889    3.5756   -0.6199 H       1  UNL1        0.0000
     35 H          -6.5094    1.3386   -1.1483 H       1  UNL1        0.0000
     36 H          -5.7058   -0.8031    0.0978 H       1  UNL1        0.0000
     37 H          -4.1021   -2.6790    1.2975 H       1  UNL1        0.0000
     38 H          -0.0161   -2.3602    1.6458 H       1  UNL1        0.0000
@<TRIPOS>BOND
     1     1     2    1
     2     2     3    2
     3     3     4   ar
     4     4     5   ar
     5     5     6   ar
     6     6     7   ar
     7     7     8   ar
     8     8     9   ar
     9     9    10   ar
    10    10    11   ar
    11    11    12    2
    12     4    13    1
    13    13    14   ar
    14    14    15   ar
    15    15    16    1
    16    16    17    1
    17    17    18    2
    18    18    19    1
    19    19    20   ar
    20    20    21   ar
    21    21    22   ar
    22    22    23   ar
    23    23    24   ar
    24    12     1    1
    25    24    13   ar
    26    11     3   ar
    27    19    15   ar
    28    24    20   ar
    29    10     6   ar
    30     1    25    1
    31     1    26    1
    32     2    27    1
    33     5    28    1
    34     8    29    1
    35     9    30    1
    36    12    31    1
    37    14    32    1
    38    16    33    1
    39    16    34    1
    40    17    35    1
    41    18    36    1
    42    21    37    1
    43    23    38    1
