@<TRIPOS>MOLECULE
*****
 50 57 0 0 0
SMALL
GASTEIGER

@<TRIPOS>ATOM
      1 C          -2.7274    3.1422   -2.2899 C.3     1  UNL1       -0.0148
      2 C          -1.4679    2.5012   -1.7932 C.2     1  UNL1       -0.0719
      3 C          -1.7581    1.4774   -0.9761 C.ar    1  UNL1       -0.0114
      4 C          -0.9182    0.5221   -0.3188 C.ar    1  UNL1        0.0160
      5 C          -1.5324   -0.6236    0.1815 C.ar    1  UNL1        0.0566
      6 N          -0.5304   -1.4935    0.4949 N.ar    1  UNL1       -0.3536
      7 C           0.6980   -0.8874    0.3546 C.ar    1  UNL1        0.0487
      8 C           1.9663   -1.4381    0.5515 C.ar    1  UNL1       -0.0281
      9 C           3.0897   -0.6190    0.3774 C.ar    1  UNL1        0.0080
     10 C           4.4015   -1.2571    0.5119 C.ar    1  UNL1        0.0471
     11 C           5.0257   -1.8140    1.6132 C.ar    1  UNL1       -0.0364
     12 C           6.2797   -2.3197    1.1923 C.ar    1  UNL1       -0.0438
     13 C           6.3878   -2.0733   -0.1572 C.ar    1  UNL1        0.0022
     14 N           5.2433   -1.4384   -0.5628 N.ar    1  UNL1       -0.3606
     15 C           2.9416    0.7628    0.1074 C.ar    1  UNL1       -0.0081
     16 C           4.0414    1.6534    0.0387 C.ar    1  UNL1       -0.0534
     17 C           3.8724    3.0246   -0.1581 C.ar    1  UNL1       -0.0611
     18 C           2.5950    3.5513   -0.2643 C.ar    1  UNL1       -0.0611
     19 C           1.4896    2.7030   -0.2049 C.ar    1  UNL1       -0.0534
     20 C           1.6345    1.3049   -0.0659 C.ar    1  UNL1       -0.0075
     21 C           0.4874    0.4406   -0.0329 C.ar    1  UNL1        0.0157
     22 C          -2.9733   -0.8411    0.2515 C.ar    1  UNL1        0.0173
     23 C          -3.6650   -1.8925    0.8591 C.ar    1  UNL1        0.0295
     24 C          -3.2031   -2.9844    1.5494 C.ar    1  UNL1        0.1000
     25 O          -4.2543   -3.7513    1.9774 O.2     1  UNL1       -0.4698
     26 C          -5.4056   -3.1359    1.5753 C.ar    1  UNL1        0.0994
     27 C          -5.0922   -1.9895    0.8975 C.ar    1  UNL1        0.0205
     28 C          -5.9934   -1.0807    0.3616 C.ar    1  UNL1       -0.0504
     29 C          -5.3124    0.0037   -0.2417 C.ar    1  UNL1       -0.0527
     30 C          -3.8755    0.1357   -0.3009 C.ar    1  UNL1       -0.0078
     31 C          -3.2235    1.2980   -0.9590 C.ar    1  UNL1       -0.0134
     32 C          -3.7905    2.2706   -1.6946 C.2     1  UNL1       -0.0719
     33 H          -2.8138    4.1742   -1.9377 H       1  UNL1        0.0350
     34 H          -2.7725    3.1206   -3.3828 H       1  UNL1        0.0350
     35 H          -0.4875    2.8123   -2.1138 H       1  UNL1        0.0581
     36 H          -0.6476   -2.4530    0.7785 H       1  UNL1        0.1659
     37 H           2.0826   -2.4868    0.8118 H       1  UNL1        0.0645
     38 H           4.6205   -1.8433    2.6167 H       1  UNL1        0.0639
     39 H           7.0209   -2.8125    1.8079 H       1  UNL1        0.0633
     40 H           7.1759   -2.2972   -0.8633 H       1  UNL1        0.0807
     41 H           5.0378   -1.1403   -1.5075 H       1  UNL1        0.1653
     42 H           5.0570    1.2874    0.1767 H       1  UNL1        0.0624
     43 H           4.7390    3.6794   -0.1906 H       1  UNL1        0.0618
     44 H           2.4524    4.6232   -0.3704 H       1  UNL1        0.0618
     45 H           0.5058    3.1582   -0.2078 H       1  UNL1        0.0624
     46 H          -2.2365   -3.3672    1.8358 H       1  UNL1        0.1036
     47 H          -6.3236   -3.6315    1.8575 H       1  UNL1        0.1035
     48 H          -7.0709   -1.1588    0.3995 H       1  UNL1        0.0625
     49 H          -5.9298    0.7856   -0.6827 H       1  UNL1        0.0624
     50 H          -4.8408    2.3976   -1.9030 H       1  UNL1        0.0581
@<TRIPOS>BOND
     1     1     2    1
     2     2     3    2
     3     3     4   ar
     4     4     5   ar
     5     5     6   ar
     6     6     7   ar
     7     7     8   ar
     8     8     9   ar
     9     9    10    1
    10    10    11   ar
    11    11    12   ar
    12    12    13   ar
    13    13    14   ar
    14     9    15   ar
    15    15    16   ar
    16    16    17   ar
    17    17    18   ar
    18    18    19   ar
    19    19    20   ar
    20    20    21   ar
    21     5    22   ar
    22    22    23   ar
    23    23    24   ar
    24    24    25   ar
    25    25    26   ar
    26    26    27   ar
    27    27    28   ar
    28    28    29   ar
    29    29    30   ar
    30    30    31   ar
    31    31    32    2
    32    32     1    1
    33    31     3   ar
    34    21     4   ar
    35    30    22   ar
    36    21     7   ar
    37    27    23   ar
    38    14    10   ar
    39    20    15   ar
    40     1    33    1
    41     1    34    1
    42     2    35    1
    43     6    36    1
    44     8    37    1
    45    11    38    1
    46    12    39    1
    47    13    40    1
    48    14    41    1
    49    16    42    1
    50    17    43    1
    51    18    44    1
    52    19    45    1
    53    24    46    1
    54    26    47    1
    55    28    48    1
    56    29    49    1
    57    32    50    1
