@<TRIPOS>MOLECULE
*****
 41 47 0 0 0
SMALL
GASTEIGER

@<TRIPOS>ATOM
      1 C          -2.5026    0.2627    3.7129 C.3     1  UNL1       -0.0148
      2 C          -1.3570    0.1752    2.7486 C.2     1  UNL1       -0.0719
      3 C          -1.8343    0.0289    1.5063 C.ar    1  UNL1       -0.0110
      4 C          -1.1866   -0.0988    0.2574 C.ar    1  UNL1        0.0220
      5 C          -1.9345   -0.2404   -0.9008 C.ar    1  UNL1        0.0564
      6 N          -1.0691   -0.3431   -1.9581 N.ar    1  UNL1       -0.3532
      7 C           0.2194   -0.2671   -1.4732 C.ar    1  UNL1        0.0553
      8 C           1.5348   -0.3040   -2.0062 C.ar    1  UNL1       -0.0224
      9 C           2.4838   -0.1760   -1.0012 C.ar    1  UNL1        0.0291
     10 S           1.7597   -0.0142    0.5632 S.2     1  UNL1       -0.0855
     11 C           0.1773   -0.1171   -0.1176 C.ar    1  UNL1        0.0458
     12 C           3.9248   -0.1693   -1.1616 C.ar    1  UNL1        0.0352
     13 S           4.6820   -0.3275   -2.7375 S.2     1  UNL1       -0.0934
     14 C           6.2948   -0.2336   -2.1198 C.ar    1  UNL1        0.0002
     15 C           6.2143   -0.0901   -0.7839 C.ar    1  UNL1        0.0542
     16 N           7.2641    0.0211    0.0807 N.ar    1  UNL1       -0.3602
     17 C           6.6010    0.1419    1.2973 C.ar    1  UNL1        0.0028
     18 C           5.2006    0.1002    1.1289 C.ar    1  UNL1       -0.0355
     19 C           4.9374   -0.0551   -0.2636 C.ar    1  UNL1        0.0149
     20 C          -3.4091   -0.2702   -0.9406 C.ar    1  UNL1        0.0066
     21 C          -4.1283   -0.4149   -2.1313 C.ar    1  UNL1       -0.0520
     22 C          -5.5245   -0.4362   -2.1061 C.ar    1  UNL1       -0.0611
     23 C          -6.2098   -0.3137   -0.8972 C.ar    1  UNL1       -0.0611
     24 C          -5.5070   -0.1684    0.3010 C.ar    1  UNL1       -0.0534
     25 C          -4.1078   -0.1446    0.2979 C.ar    1  UNL1       -0.0085
     26 C          -3.3027    0.0070    1.5370 C.ar    1  UNL1       -0.0134
     27 C          -3.7019    0.1420    2.8138 C.2     1  UNL1       -0.0719
     28 H          -2.5018    1.2214    4.2397 H       1  UNL1        0.0350
     29 H          -2.4711   -0.5564    4.4373 H       1  UNL1        0.0350
     30 H          -0.3173    0.2245    3.0307 H       1  UNL1        0.0581
     31 H          -1.2903   -0.4559   -2.9385 H       1  UNL1        0.1659
     32 H           1.7613   -0.4172   -3.0584 H       1  UNL1        0.0650
     33 H           7.1673   -0.2879   -2.7552 H       1  UNL1        0.0714
     34 H           8.2536    0.0143   -0.1343 H       1  UNL1        0.1653
     35 H           7.1814    0.2499    2.2046 H       1  UNL1        0.0807
     36 H           4.4817    0.1753    1.9337 H       1  UNL1        0.0639
     37 H          -3.6223   -0.5123   -3.0860 H       1  UNL1        0.0624
     38 H          -6.0810   -0.5489   -3.0334 H       1  UNL1        0.0618
     39 H          -7.2970   -0.3313   -0.8867 H       1  UNL1        0.0618
     40 H          -6.0643   -0.0750    1.2282 H       1  UNL1        0.0624
     41 H          -4.7188    0.1643    3.1720 H       1  UNL1        0.0581
@<TRIPOS>BOND
     1     1     2    1
     2     2     3    2
     3     3     4   ar
     4     4     5   ar
     5     5     6   ar
     6     6     7   ar
     7     7     8   ar
     8     8     9   ar
     9     9    10   ar
    10    10    11   ar
    11     9    12    1
    12    12    13   ar
    13    13    14   ar
    14    14    15   ar
    15    15    16   ar
    16    16    17   ar
    17    17    18   ar
    18    18    19   ar
    19     5    20   ar
    20    20    21   ar
    21    21    22   ar
    22    22    23   ar
    23    23    24   ar
    24    24    25   ar
    25    25    26   ar
    26    26    27    2
    27    27     1    1
    28    26     3   ar
    29    11     4   ar
    30    19    12   ar
    31    25    20   ar
    32    11     7   ar
    33    19    15   ar
    34     1    28    1
    35     1    29    1
    36     2    30    1
    37     6    31    1
    38     8    32    1
    39    14    33    1
    40    16    34    1
    41    17    35    1
    42    18    36    1
    43    21    37    1
    44    22    38    1
    45    23    39    1
    46    24    40    1
    47    27    41    1
