@<TRIPOS>MOLECULE
*****
 51 58 0 0 0
SMALL
GASTEIGER

@<TRIPOS>ATOM
      1 C           0.9012   -3.7433    1.0041 C.3     1  UNL1        0.0000
      2 C           1.9280   -2.6690    0.8215 C.2     1  UNL1        0.0000
      3 C           1.3409   -1.5287    0.4308 C.ar    1  UNL1        0.0000
      4 C           1.8712   -0.2258    0.1875 C.ar    1  UNL1        0.0000
      5 C           0.9592    0.8281    0.0438 C.ar    1  UNL1        0.0000
      6 N           1.6841    1.9934    0.0493 N.ar    1  UNL1        0.0000
      7 C           3.0166    1.6981    0.0547 C.ar    1  UNL1        0.0000
      8 C           4.0166    2.7058    0.0786 C.ar    1  UNL1        0.0000
      9 C           5.2975    2.2846    0.0708 C.ar    1  UNL1        0.0000
     10 C           5.6034    0.8575   -0.0154 C.ar    1  UNL1        0.0000
     11 C           6.8537    0.3685   -0.1280 C.2     1  UNL1        0.0000
     12 SI          6.8212   -1.4828   -0.3639 Si      1  UNL1        0.0000
     13 C           4.9568   -1.4219   -0.2990 C.2     1  UNL1        0.0000
     14 C           4.5140   -0.1739   -0.0600 C.ar    1  UNL1        0.0000
     15 C           3.1699    0.3177    0.0428 C.ar    1  UNL1        0.0000
     16 C          -0.4944    0.6746   -0.0186 C.ar    1  UNL1        0.0000
     17 C          -1.4641    1.6553   -0.2761 C.ar    1  UNL1        0.0000
     18 C          -1.3042    2.9937   -0.5519 C.ar    1  UNL1        0.0000
     19 N          -2.5591    3.5429   -0.7211 N.ar    1  UNL1        0.0000
     20 C          -3.5239    2.5749   -0.5800 C.ar    1  UNL1        0.0000
     21 C          -2.8784    1.3873   -0.3313 C.ar    1  UNL1        0.0000
     22 C          -3.4780    0.1333   -0.1467 C.ar    1  UNL1        0.0000
     23 C          -2.4981   -0.8662    0.0984 C.ar    1  UNL1        0.0000
     24 C          -1.0788   -0.6288    0.1556 C.ar    1  UNL1        0.0000
     25 C          -0.1193   -1.7365    0.4094 C.ar    1  UNL1        0.0000
     26 C          -0.3792   -3.0193    0.7202 C.2     1  UNL1        0.0000
     27 C          -4.9086   -0.1295   -0.2080 C.ar    1  UNL1        0.0000
     28 C          -5.6008   -0.6683    0.8828 C.ar    1  UNL1        0.0000
     29 C          -6.9692   -0.9172    0.7930 C.ar    1  UNL1        0.0000
     30 C          -7.6136   -0.6220   -0.3961 C.ar    1  UNL1        0.0000
     31 N          -6.9912   -0.1083   -1.4768 N.ar    1  UNL1        0.0000
     32 C          -5.6596    0.1197   -1.3570 C.ar    1  UNL1        0.0000
     33 H           1.0578   -4.5660    0.3006 H       1  UNL1        0.0000
     34 H           0.9136   -4.1271    2.0286 H       1  UNL1        0.0000
     35 H           2.9716   -2.8138    1.0362 H       1  UNL1        0.0000
     36 H           1.2991    2.9234    0.0648 H       1  UNL1        0.0000
     37 H           3.7672    3.7596    0.1212 H       1  UNL1        0.0000
     38 H           6.1166    2.9945    0.0957 H       1  UNL1        0.0000
     39 H           7.7765    0.9253   -0.1447 H       1  UNL1        0.0000
     40 H           7.3331   -1.8921   -1.6942 H       1  UNL1        0.0000
     41 H           7.4059   -2.2109    0.7883 H       1  UNL1        0.0000
     42 H           4.3753   -2.3068   -0.4801 H       1  UNL1        0.0000
     43 H          -0.4445    3.6341   -0.6608 H       1  UNL1        0.0000
     44 H          -2.7429    4.5163   -0.9287 H       1  UNL1        0.0000
     45 H          -4.5710    2.8296   -0.6791 H       1  UNL1        0.0000
     46 H          -2.8574   -1.8858    0.2359 H       1  UNL1        0.0000
     47 H          -1.3486   -3.4822    0.8105 H       1  UNL1        0.0000
     48 H          -5.0781   -0.8862    1.8114 H       1  UNL1        0.0000
     49 H          -7.5178   -1.3292    1.6323 H       1  UNL1        0.0000
     50 H          -8.6790   -0.7972   -0.5144 H       1  UNL1        0.0000
     51 H          -5.1914    0.5207   -2.2530 H       1  UNL1        0.0000
@<TRIPOS>BOND
     1     1     2    1
     2     2     3    2
     3     3     4   ar
     4     4     5   ar
     5     5     6   ar
     6     6     7   ar
     7     7     8   ar
     8     8     9   ar
     9     9    10   ar
    10    10    11    2
    11    11    12    1
    12    12    13    1
    13    13    14    2
    14    14    15   ar
    15     5    16   ar
    16    16    17   ar
    17    17    18   ar
    18    18    19   ar
    19    19    20   ar
    20    20    21   ar
    21    21    22   ar
    22    22    23   ar
    23    23    24   ar
    24    24    25   ar
    25    25    26    2
    26    22    27    1
    27    27    28   ar
    28    28    29   ar
    29    29    30   ar
    30    30    31   ar
    31    31    32   ar
    32    26     1    1
    33    32    27   ar
    34    25     3   ar
    35    15     4   ar
    36    24    16   ar
    37    15     7   ar
    38    21    17   ar
    39    14    10   ar
    40     1    33    1
    41     1    34    1
    42     2    35    1
    43     6    36    1
    44     8    37    1
    45     9    38    1
    46    11    39    1
    47    12    40    1
    48    12    41    1
    49    13    42    1
    50    18    43    1
    51    19    44    1
    52    20    45    1
    53    23    46    1
    54    26    47    1
    55    28    48    1
    56    29    49    1
    57    30    50    1
    58    32    51    1
