@<TRIPOS>MOLECULE
*****
 49 56 0 0 0
SMALL
GASTEIGER

@<TRIPOS>ATOM
      1 C          -1.0699   -3.9612   -1.1165 C.3     1  UNL1       -0.0148
      2 C          -2.0850   -2.8657   -0.9878 C.2     1  UNL1       -0.0719
      3 C          -1.4990   -1.7463   -0.5435 C.ar    1  UNL1       -0.0114
      4 C          -1.9966   -0.4473   -0.2511 C.ar    1  UNL1        0.0161
      5 C          -1.0626    0.5915   -0.1284 C.ar    1  UNL1        0.0565
      6 N          -1.7568    1.7055    0.2938 N.ar    1  UNL1       -0.3536
      7 C          -3.1148    1.4719    0.3217 C.ar    1  UNL1        0.0482
      8 C          -4.1874    2.3513    0.6347 C.ar    1  UNL1       -0.0371
      9 C          -5.5135    1.8840    0.7000 C.ar    1  UNL1       -0.0490
     10 C          -5.5933    0.5187    0.4754 C.ar    1  UNL1        0.0206
     11 C          -6.7448   -0.2263    0.5455 C.ar    1  UNL1        0.0994
     12 O          -6.4600   -1.5495    0.3309 O.2     1  UNL1       -0.4698
     13 C          -5.1061   -1.6501    0.1165 C.ar    1  UNL1        0.1000
     14 C          -4.5717   -0.4008    0.1706 C.ar    1  UNL1        0.0296
     15 C          -3.2445    0.1155    0.0421 C.ar    1  UNL1        0.0187
     16 C           0.4248    0.4495   -0.1940 C.ar    1  UNL1        0.0144
     17 C           1.3538    1.5354   -0.2166 C.ar    1  UNL1       -0.0075
     18 C           0.9885    2.8784   -0.5000 C.ar    1  UNL1       -0.0534
     19 C           1.8934    3.9383   -0.4416 C.ar    1  UNL1       -0.0611
     20 C           3.2110    3.6884   -0.1151 C.ar    1  UNL1       -0.0611
     21 C           3.6248    2.3749    0.0970 C.ar    1  UNL1       -0.0533
     22 C           2.7380    1.2702    0.0127 C.ar    1  UNL1       -0.0065
     23 C           3.1908   -0.0759    0.1478 C.ar    1  UNL1        0.0275
     24 C           2.2653   -1.1278    0.0204 C.ar    1  UNL1       -0.0421
     25 C           0.9076   -0.8868   -0.1751 C.ar    1  UNL1       -0.0072
     26 C          -0.0542   -1.9836   -0.4309 C.ar    1  UNL1       -0.0133
     27 C           0.2032   -3.2674   -0.7387 C.2     1  UNL1       -0.0719
     28 C           4.6008   -0.4430    0.3662 C.ar    1  UNL1        0.1636
     29 N           5.5031   -0.0265   -0.5279 N.ar    1  UNL1       -0.2160
     30 C           6.7453   -0.4390   -0.2908 C.ar    1  UNL1        0.1200
     31 N           7.1371   -1.2024    0.7259 N.ar    1  UNL1       -0.2241
     32 C           6.1495   -1.5622    1.5415 C.ar    1  UNL1        0.1200
     33 N           4.8682   -1.2278    1.4157 N.ar    1  UNL1       -0.2160
     34 H          -1.2899   -4.7886   -0.4357 H       1  UNL1        0.0350
     35 H          -1.0227   -4.3320   -2.1447 H       1  UNL1        0.0350
     36 H          -3.1156   -2.9933   -1.2615 H       1  UNL1        0.0581
     37 H          -1.3384    2.5668    0.6093 H       1  UNL1        0.1659
     38 H          -3.9845    3.4002    0.8404 H       1  UNL1        0.0638
     39 H          -6.3495    2.5264    0.9414 H       1  UNL1        0.0625
     40 H          -7.7835   -0.0046    0.7450 H       1  UNL1        0.1035
     41 H          -4.7497   -2.6563   -0.0199 H       1  UNL1        0.1036
     42 H          -0.0130    3.1211   -0.8418 H       1  UNL1        0.0624
     43 H           1.5666    4.9503   -0.6653 H       1  UNL1        0.0618
     44 H           3.9289    4.5021   -0.0584 H       1  UNL1        0.0618
     45 H           4.6803    2.2252    0.3169 H       1  UNL1        0.0624
     46 H           2.6308   -2.1515    0.0761 H       1  UNL1        0.0631
     47 H           1.1719   -3.7381   -0.7970 H       1  UNL1        0.0581
     48 H           7.5101   -0.1230   -0.9922 H       1  UNL1        0.1048
     49 H           6.4129   -2.1891    2.3868 H       1  UNL1        0.1048
@<TRIPOS>BOND
     1     1     2    1
     2     2     3    2
     3     3     4   ar
     4     4     5   ar
     5     5     6   ar
     6     6     7   ar
     7     7     8   ar
     8     8     9   ar
     9     9    10   ar
    10    10    11   ar
    11    11    12   ar
    12    12    13   ar
    13    13    14   ar
    14    14    15   ar
    15     5    16   ar
    16    16    17   ar
    17    17    18   ar
    18    18    19   ar
    19    19    20   ar
    20    20    21   ar
    21    21    22   ar
    22    22    23   ar
    23    23    24   ar
    24    24    25   ar
    25    25    26   ar
    26    26    27    2
    27    23    28    1
    28    28    29   ar
    29    29    30   ar
    30    30    31   ar
    31    31    32   ar
    32    32    33   ar
    33    27     1    1
    34    33    28   ar
    35    26     3   ar
    36    15     4   ar
    37    25    16   ar
    38    15     7   ar
    39    22    17   ar
    40    14    10   ar
    41     1    34    1
    42     1    35    1
    43     2    36    1
    44     6    37    1
    45     8    38    1
    46     9    39    1
    47    11    40    1
    48    13    41    1
    49    18    42    1
    50    19    43    1
    51    20    44    1
    52    21    45    1
    53    24    46    1
    54    27    47    1
    55    30    48    1
    56    32    49    1
