@<TRIPOS>MOLECULE
*****
 46 53 0 0 0
SMALL
GASTEIGER

@<TRIPOS>ATOM
      1 C          -1.3493   -2.2525   -2.8415 C.3     1  UNL1        0.0000
      2 C          -2.4850   -1.5844   -2.1292 C.2     1  UNL1        0.0000
      3 C          -2.0215   -0.7211   -1.2146 C.ar    1  UNL1        0.0000
      4 C          -2.6704    0.1527   -0.2889 C.ar    1  UNL1        0.0000
      5 C          -1.8549    0.9363    0.5333 C.ar    1  UNL1        0.0000
      6 N          -2.6683    1.7000    1.3347 N.ar    1  UNL1        0.0000
      7 C          -3.9973    1.4416    1.0711 C.ar    1  UNL1        0.0000
      8 C          -5.1503    1.9953    1.6572 C.ar    1  UNL1        0.0000
      9 C          -6.4162    1.5774    1.2267 C.ar    1  UNL1        0.0000
     10 C          -6.4555    0.6029    0.2073 C.ar    1  UNL1        0.0000
     11 N          -7.5801    0.0859   -0.3263 N.ar    1  UNL1        0.0000
     12 S          -7.0954   -1.0182   -1.4839 S.2     1  UNL1        0.0000
     13 N          -5.4350   -0.8878   -1.3566 N.ar    1  UNL1        0.0000
     14 C          -5.2680    0.0199   -0.4101 C.ar    1  UNL1        0.0000
     15 C          -3.9912    0.4827    0.0660 C.ar    1  UNL1        0.0000
     16 C          -0.3802    0.9455    0.5403 C.ar    1  UNL1        0.0000
     17 C           0.3682    1.7574    1.3994 C.ar    1  UNL1        0.0000
     18 C           1.7655    1.7197    1.3636 C.ar    1  UNL1        0.0000
     19 C           2.4364    0.8756    0.4704 C.ar    1  UNL1        0.0000
     20 C           1.6906    0.0622   -0.3937 C.ar    1  UNL1        0.0000
     21 C           0.2894    0.0860   -0.3686 C.ar    1  UNL1        0.0000
     22 C          -0.5465   -0.7538   -1.2548 C.ar    1  UNL1        0.0000
     23 C          -0.1511   -1.6351   -2.1900 C.2     1  UNL1        0.0000
     24 C           3.8963    0.8194    0.4496 C.ar    1  UNL1        0.0000
     25 S           4.8164    2.2305    0.0464 S.2     1  UNL1        0.0000
     26 C           6.3289    1.4095    0.2066 C.ar    1  UNL1        0.0000
     27 C           6.1330    0.1016    0.5575 C.ar    1  UNL1        0.0000
     28 C           7.0723   -0.9491    0.8038 C.2     1  UNL1        0.0000
     29 C           6.5206   -2.1351    1.1427 C.2     1  UNL1        0.0000
     30 SI          4.6061   -2.0271    1.1874 Si      1  UNL1        0.0000
     31 C           4.7548   -0.2146    0.6885 C.ar    1  UNL1        0.0000
     32 H          -1.3688   -3.3352   -2.6863 H       1  UNL1        0.0000
     33 H          -1.3725   -2.0334   -3.9130 H       1  UNL1        0.0000
     34 H          -3.5117   -1.8028   -2.3603 H       1  UNL1        0.0000
     35 H          -2.3478    2.3626    2.0251 H       1  UNL1        0.0000
     36 H          -5.0693    2.7447    2.4412 H       1  UNL1        0.0000
     37 H          -7.3275    1.9800    1.6532 H       1  UNL1        0.0000
     38 H          -0.1088    2.4262    2.1080 H       1  UNL1        0.0000
     39 H           2.3301    2.3521    2.0461 H       1  UNL1        0.0000
     40 H           2.2130   -0.5823   -1.0952 H       1  UNL1        0.0000
     41 H           0.8629   -1.8840   -2.4598 H       1  UNL1        0.0000
     42 H           7.2556    1.9385    0.0346 H       1  UNL1        0.0000
     43 H           8.1421   -0.7943    0.7222 H       1  UNL1        0.0000
     44 H           7.0268   -3.0589    1.3716 H       1  UNL1        0.0000
     45 H           4.0086   -2.8922    0.1391 H       1  UNL1        0.0000
     46 H           4.1048   -2.2440    2.5674 H       1  UNL1        0.0000
@<TRIPOS>BOND
     1     1     2    1
     2     2     3    2
     3     3     4   ar
     4     4     5   ar
     5     5     6   ar
     6     6     7   ar
     7     7     8   ar
     8     8     9   ar
     9     9    10   ar
    10    10    11   ar
    11    11    12   ar
    12    12    13   ar
    13    13    14   ar
    14    14    15   ar
    15     5    16   ar
    16    16    17   ar
    17    17    18   ar
    18    18    19   ar
    19    19    20   ar
    20    20    21   ar
    21    21    22   ar
    22    22    23    2
    23    19    24    1
    24    24    25   ar
    25    25    26   ar
    26    26    27   ar
    27    27    28    1
    28    28    29    2
    29    29    30    1
    30    30    31    1
    31    23     1    1
    32    31    24   ar
    33    22     3   ar
    34    31    27   ar
    35    15     4   ar
    36    21    16   ar
    37    15     7   ar
    38    14    10   ar
    39     1    32    1
    40     1    33    1
    41     2    34    1
    42     6    35    1
    43     8    36    1
    44     9    37    1
    45    17    38    1
    46    18    39    1
    47    20    40    1
    48    23    41    1
    49    26    42    1
    50    28    43    1
    51    29    44    1
    52    30    45    1
    53    30    46    1
