@<TRIPOS>MOLECULE
*****
 43 49 0 0 0
SMALL
GASTEIGER

@<TRIPOS>ATOM
      1 C          -0.2842   -3.5740   -0.0775 C.3     1  UNL1       -0.0148
      2 C          -1.2335   -2.4401    0.1795 C.2     1  UNL1       -0.0718
      3 C          -0.5974   -1.2664    0.0610 C.ar    1  UNL1       -0.0097
      4 C          -1.0189    0.0852    0.2512 C.ar    1  UNL1        0.0380
      5 C          -0.0115    1.0341    0.3242 C.ar    1  UNL1        0.1626
      6 O          -0.5024    2.2489    0.6486 O.2     1  UNL1       -0.4526
      7 C          -1.8533    2.1009    0.7257 C.ar    1  UNL1        0.1370
      8 C          -2.7168    3.1339    1.0782 C.ar    1  UNL1       -0.0181
      9 C          -4.0800    2.8452    1.0842 C.ar    1  UNL1       -0.0505
     10 C          -4.5629    1.5923    0.6887 C.ar    1  UNL1       -0.0171
     11 C          -5.9459    1.3569    0.6458 C.ar    1  UNL1       -0.0540
     12 C          -6.4533    0.1404    0.1904 C.ar    1  UNL1       -0.0612
     13 C          -5.5848   -0.8512   -0.2490 C.ar    1  UNL1       -0.0611
     14 C          -4.2047   -0.6419   -0.2040 C.ar    1  UNL1       -0.0533
     15 C          -3.6624    0.5582    0.3005 C.ar    1  UNL1       -0.0065
     16 C          -2.2511    0.7983    0.3940 C.ar    1  UNL1        0.0362
     17 C           1.4173    0.8418    0.1082 C.ar    1  UNL1        0.1143
     18 N           2.2283    1.9191    0.1676 N.ar    1  UNL1       -0.2506
     19 C           3.5421    1.6877   -0.0807 C.ar    1  UNL1        0.0381
     20 C           4.0997    0.4419   -0.3903 C.ar    1  UNL1        0.0258
     21 C           3.2172   -0.6496   -0.4402 C.ar    1  UNL1       -0.0407
     22 C           1.8548   -0.4635   -0.1888 C.ar    1  UNL1        0.0121
     23 C           0.8373   -1.5391   -0.1850 C.ar    1  UNL1       -0.0118
     24 C           1.0205   -2.8660   -0.2896 C.2     1  UNL1       -0.0719
     25 C           5.5487    0.3509   -0.6379 C.ar    1  UNL1        0.1097
     26 N           6.3679    1.3855   -0.5786 N.ar    1  UNL1       -0.2473
     27 C           7.6628    0.9975   -0.8568 C.ar    1  UNL1        0.0354
     28 C           7.8333   -0.3396   -1.1297 C.ar    1  UNL1       -0.0042
     29 S           6.3250   -1.1406   -1.0360 S.2     1  UNL1       -0.0756
     30 H          -0.5773   -4.1432   -0.9643 H       1  UNL1        0.0350
     31 H          -0.2294   -4.2412    0.7879 H       1  UNL1        0.0350
     32 H          -2.2583   -2.5994    0.4678 H       1  UNL1        0.0581
     33 H          -2.3368    4.1142    1.3407 H       1  UNL1        0.0655
     34 H          -4.7720    3.6356    1.3698 H       1  UNL1        0.0625
     35 H          -6.6464    2.1308    0.9536 H       1  UNL1        0.0624
     36 H          -7.5276   -0.0209    0.1552 H       1  UNL1        0.0618
     37 H          -5.9794   -1.7847   -0.6418 H       1  UNL1        0.0618
     38 H          -3.5643   -1.4075   -0.6210 H       1  UNL1        0.0624
     39 H           4.1661    2.5787   -0.0229 H       1  UNL1        0.0836
     40 H           3.5800   -1.6456   -0.6716 H       1  UNL1        0.0631
     41 H           1.9568   -3.3812   -0.4384 H       1  UNL1        0.0581
     42 H           8.4521    1.7395   -0.8465 H       1  UNL1        0.0835
     43 H           8.7446   -0.8667   -1.3722 H       1  UNL1        0.0709
@<TRIPOS>BOND
     1     1     2    1
     2     2     3    2
     3     3     4   ar
     4     4     5   ar
     5     5     6   ar
     6     6     7   ar
     7     7     8   ar
     8     8     9   ar
     9     9    10   ar
    10    10    11   ar
    11    11    12   ar
    12    12    13   ar
    13    13    14   ar
    14    14    15   ar
    15    15    16   ar
    16     5    17   ar
    17    17    18   ar
    18    18    19   ar
    19    19    20   ar
    20    20    21   ar
    21    21    22   ar
    22    22    23   ar
    23    23    24    2
    24    20    25    1
    25    25    26   ar
    26    26    27   ar
    27    27    28   ar
    28    28    29   ar
    29    24     1    1
    30    29    25   ar
    31    23     3   ar
    32    16     4   ar
    33    22    17   ar
    34    16     7   ar
    35    15    10   ar
    36     1    30    1
    37     1    31    1
    38     2    32    1
    39     8    33    1
    40     9    34    1
    41    11    35    1
    42    12    36    1
    43    13    37    1
    44    14    38    1
    45    19    39    1
    46    21    40    1
    47    24    41    1
    48    27    42    1
    49    28    43    1
