@<TRIPOS>MOLECULE
*****
 42 48 0 0 0
SMALL
GASTEIGER

@<TRIPOS>ATOM
      1 C          -0.9544   -3.3386   -1.3510 C.3     1  UNL1       -0.0148
      2 C          -1.9261   -2.2689   -0.9463 C.2     1  UNL1       -0.0718
      3 C          -1.2702   -1.2041   -0.4674 C.ar    1  UNL1       -0.0098
      4 C          -1.7041    0.0523    0.0413 C.ar    1  UNL1        0.0366
      5 C          -0.7092    0.9318    0.4587 C.ar    1  UNL1        0.1445
      6 O          -1.2156    2.1029    0.9281 O.2     1  UNL1       -0.4542
      7 C          -2.5757    1.9994    0.8202 C.ar    1  UNL1        0.1370
      8 C          -3.4964    3.0042    1.2000 C.ar    1  UNL1       -0.0180
      9 C          -4.8797    2.7910    1.0447 C.ar    1  UNL1       -0.0475
     10 C          -5.1609    1.5424    0.5052 C.ar    1  UNL1        0.0207
     11 C          -6.4195    1.0603    0.2422 C.ar    1  UNL1        0.0994
     12 O          -6.3364   -0.2017   -0.2858 O.2     1  UNL1       -0.4698
     13 C          -5.0044   -0.5335   -0.3625 C.ar    1  UNL1        0.1001
     14 C          -4.2794    0.5131    0.1132 C.ar    1  UNL1        0.0312
     15 C          -2.8851    0.7548    0.2812 C.ar    1  UNL1        0.0392
     16 C           0.7361    0.7287    0.4412 C.ar    1  UNL1        0.0256
     17 C           1.6438    1.6872    0.8877 C.ar    1  UNL1       -0.0498
     18 C           3.0166    1.4216    0.8404 C.ar    1  UNL1       -0.0503
     19 C           3.5217    0.1998    0.3494 C.ar    1  UNL1        0.0198
     20 C           2.5842   -0.7568   -0.0977 C.ar    1  UNL1       -0.0426
     21 C           1.2038   -0.5111   -0.0591 C.ar    1  UNL1       -0.0063
     22 C           0.1827   -1.4870   -0.5182 C.ar    1  UNL1       -0.0133
     23 C           0.3692   -2.7168   -1.0272 C.2     1  UNL1       -0.0719
     24 C           4.9763   -0.0691    0.3045 C.ar    1  UNL1        0.1630
     25 N           5.8021    0.8865    0.7463 N.ar    1  UNL1       -0.2160
     26 C           7.0957    0.5822    0.6790 C.ar    1  UNL1        0.1200
     27 N           7.6107   -0.5557    0.2234 N.ar    1  UNL1       -0.2241
     28 C           6.6974   -1.4297   -0.1881 C.ar    1  UNL1        0.1200
     29 N           5.3786   -1.2520   -0.1753 N.ar    1  UNL1       -0.2160
     30 H          -1.0353   -3.5598   -2.4193 H       1  UNL1        0.0350
     31 H          -1.1125   -4.2532   -0.7722 H       1  UNL1        0.0350
     32 H          -2.9858   -2.3940   -1.0484 H       1  UNL1        0.0581
     33 H          -3.1275    3.9393    1.6115 H       1  UNL1        0.0655
     34 H          -5.6189    3.5311    1.3215 H       1  UNL1        0.0626
     35 H          -7.4223    1.4469    0.3576 H       1  UNL1        0.1035
     36 H          -4.8136   -1.5120   -0.7660 H       1  UNL1        0.1036
     37 H           1.2950    2.6421    1.2736 H       1  UNL1        0.0625
     38 H           3.7018    2.1904    1.1965 H       1  UNL1        0.0625
     39 H           2.9468   -1.7079   -0.4814 H       1  UNL1        0.0631
     40 H           1.3133   -3.2124   -1.1914 H       1  UNL1        0.0581
     41 H           7.7956    1.3335    1.0287 H       1  UNL1        0.1048
     42 H           7.0613   -2.3773   -0.5705 H       1  UNL1        0.1048
@<TRIPOS>BOND
     1     1     2    1
     2     2     3    2
     3     3     4   ar
     4     4     5   ar
     5     5     6   ar
     6     6     7   ar
     7     7     8   ar
     8     8     9   ar
     9     9    10   ar
    10    10    11   ar
    11    11    12   ar
    12    12    13   ar
    13    13    14   ar
    14    14    15   ar
    15     5    16   ar
    16    16    17   ar
    17    17    18   ar
    18    18    19   ar
    19    19    20   ar
    20    20    21   ar
    21    21    22   ar
    22    22    23    2
    23    19    24    1
    24    24    25   ar
    25    25    26   ar
    26    26    27   ar
    27    27    28   ar
    28    28    29   ar
    29    23     1    1
    30    29    24   ar
    31    22     3   ar
    32    15     4   ar
    33    21    16   ar
    34    15     7   ar
    35    14    10   ar
    36     1    30    1
    37     1    31    1
    38     2    32    1
    39     8    33    1
    40     9    34    1
    41    11    35    1
    42    13    36    1
    43    17    37    1
    44    18    38    1
    45    20    39    1
    46    23    40    1
    47    26    41    1
    48    28    42    1
