@<TRIPOS>MOLECULE
*****
 47 54 0 0 0
SMALL
GASTEIGER

@<TRIPOS>ATOM
      1 C           1.8090    3.7604   -1.3271 C.3     1  UNL1        0.0000
      2 C           2.9192    2.8588   -0.8734 C.2     1  UNL1        0.0000
      3 C           2.4333    1.6487   -0.5683 C.ar    1  UNL1        0.0000
      4 C           3.0473    0.4541   -0.0983 C.ar    1  UNL1        0.0000
      5 C           2.2169   -0.6399    0.1185 C.ar    1  UNL1        0.0000
      6 O           2.9077   -1.7242    0.5660 O.2     1  UNL1        0.0000
      7 C           4.2183   -1.3368    0.6450 C.ar    1  UNL1        0.0000
      8 C           5.2733   -2.1565    1.0649 C.ar    1  UNL1        0.0000
      9 C           6.5708   -1.6216    1.0956 C.ar    1  UNL1        0.0000
     10 C           6.7224   -0.2730    0.6943 C.ar    1  UNL1        0.0000
     11 N           7.8847    0.4068    0.6586 N.ar    1  UNL1        0.0000
     12 S           7.5241    1.9493    0.1176 S.2     1  UNL1        0.0000
     13 N           5.8683    1.8238   -0.0969 N.ar    1  UNL1        0.0000
     14 C           5.6159    0.5752    0.2575 C.ar    1  UNL1        0.0000
     15 C           4.3162   -0.0160    0.2443 C.ar    1  UNL1        0.0000
     16 C           0.7731   -0.7081   -0.0818 C.ar    1  UNL1        0.0000
     17 N           0.1442   -1.8743    0.1917 N.ar    1  UNL1        0.0000
     18 C          -1.1941   -1.8831   -0.0101 C.ar    1  UNL1        0.0000
     19 C          -1.9300   -0.7906   -0.4721 C.ar    1  UNL1        0.0000
     20 C          -1.2478    0.4018   -0.7420 C.ar    1  UNL1        0.0000
     21 C           0.1315    0.4601   -0.5490 C.ar    1  UNL1        0.0000
     22 C           0.9717    1.6542   -0.7948 C.ar    1  UNL1        0.0000
     23 C           0.6042    2.8700   -1.2329 C.2     1  UNL1        0.0000
     24 C          -3.3861   -0.8864   -0.6516 C.ar    1  UNL1        0.0000
     25 C          -3.8609   -1.0777   -1.9056 C.ar    1  UNL1        0.0000
     26 C          -5.2878   -1.1951   -2.2019 C.ar    1  UNL1        0.0000
     27 C          -6.2270   -1.1214   -1.2405 C.ar    1  UNL1        0.0000
     28 C          -5.8065   -0.9168    0.1305 C.ar    1  UNL1        0.0000
     29 C          -6.6314   -0.8210    1.1894 C.2     1  UNL1        0.0000
     30 SI         -5.6562   -0.5547    2.7656 Si      1  UNL1        0.0000
     31 C          -4.0860   -0.6027    1.7458 C.2     1  UNL1        0.0000
     32 C          -4.3609   -0.7955    0.4398 C.ar    1  UNL1        0.0000
     33 H           1.7106    4.6268   -0.6665 H       1  UNL1        0.0000
     34 H           1.9703    4.0968   -2.3554 H       1  UNL1        0.0000
     35 H           3.9460    3.1787   -0.8156 H       1  UNL1        0.0000
     36 H           5.0844   -3.1843    1.3594 H       1  UNL1        0.0000
     37 H           7.4232   -2.2120    1.4121 H       1  UNL1        0.0000
     38 H          -1.6815   -2.8281    0.2188 H       1  UNL1        0.0000
     39 H          -1.7994    1.2691   -1.0926 H       1  UNL1        0.0000
     40 H          -0.3941    3.1915   -1.4867 H       1  UNL1        0.0000
     41 H          -3.1898   -1.1589   -2.7574 H       1  UNL1        0.0000
     42 H          -5.5713   -1.3488   -3.2388 H       1  UNL1        0.0000
     43 H          -7.2824   -1.2113   -1.4710 H       1  UNL1        0.0000
     44 H          -7.7078   -0.8798    1.1923 H       1  UNL1        0.0000
     45 H          -5.7637   -1.7046    3.6954 H       1  UNL1        0.0000
     46 H          -5.9031    0.7806    3.3611 H       1  UNL1        0.0000
     47 H          -3.1186   -0.4834    2.2072 H       1  UNL1        0.0000
@<TRIPOS>BOND
     1     1     2    1
     2     2     3    2
     3     3     4   ar
     4     4     5   ar
     5     5     6   ar
     6     6     7   ar
     7     7     8   ar
     8     8     9   ar
     9     9    10   ar
    10    10    11   ar
    11    11    12   ar
    12    12    13   ar
    13    13    14   ar
    14    14    15   ar
    15     5    16   ar
    16    16    17   ar
    17    17    18   ar
    18    18    19   ar
    19    19    20   ar
    20    20    21   ar
    21    21    22   ar
    22    22    23    2
    23    19    24    1
    24    24    25   ar
    25    25    26   ar
    26    26    27   ar
    27    27    28   ar
    28    28    29    2
    29    29    30    1
    30    30    31    1
    31    31    32    2
    32    23     1    1
    33    32    24   ar
    34    22     3   ar
    35    32    28   ar
    36    15     4   ar
    37    21    16   ar
    38    15     7   ar
    39    14    10   ar
    40     1    33    1
    41     1    34    1
    42     2    35    1
    43     8    36    1
    44     9    37    1
    45    18    38    1
    46    20    39    1
    47    23    40    1
    48    25    41    1
    49    26    42    1
    50    27    43    1
    51    29    44    1
    52    30    45    1
    53    30    46    1
    54    31    47    1
