@<TRIPOS>MOLECULE
*****
 46 52 0 0 0
SMALL
GASTEIGER

@<TRIPOS>ATOM
      1 C          -3.7569    1.2625   -2.7672 C.3     1  UNL1       -0.0148
      2 C          -2.3938    1.0803   -2.1734 C.2     1  UNL1       -0.0719
      3 C          -2.4833    0.4890   -0.9723 C.ar    1  UNL1       -0.0124
      4 C          -1.4874    0.1660    0.0047 C.ar    1  UNL1        0.0055
      5 C          -1.9365   -0.0778    1.3049 C.ar    1  UNL1        0.0288
      6 S          -0.6430   -0.1416    2.4237 S.2     1  UNL1       -0.0876
      7 C           0.5532   -0.0545    1.1874 C.ar    1  UNL1        0.0217
      8 C           1.9704   -0.0793    1.3653 C.ar    1  UNL1       -0.0390
      9 C           2.8731   -0.0790    0.2794 C.ar    1  UNL1       -0.0077
     10 C           4.3240   -0.1033    0.4339 C.ar    1  UNL1       -0.0172
     11 C           4.9604   -1.1747    1.0804 C.ar    1  UNL1       -0.0540
     12 C           6.3484   -1.1951    1.2402 C.ar    1  UNL1       -0.0612
     13 C           7.1212   -0.1408    0.7593 C.ar    1  UNL1       -0.0617
     14 C           6.5077    0.9337    0.1198 C.ar    1  UNL1       -0.0612
     15 C           5.1198    0.9521   -0.0397 C.ar    1  UNL1       -0.0540
     16 C           2.1968   -0.1124   -0.9420 C.ar    1  UNL1        0.0078
     17 C           2.7846   -0.2525   -2.1822 C.ar    1  UNL1        0.0100
     18 N           1.7797   -0.3427   -3.1231 N.ar    1  UNL1       -0.3659
     19 C           0.5477   -0.2771   -2.5073 C.ar    1  UNL1        0.0100
     20 C           0.8057   -0.0830   -1.1813 C.ar    1  UNL1        0.0088
     21 C          -0.0795    0.0187   -0.0493 C.ar    1  UNL1        0.0067
     22 C          -3.3603   -0.2351    1.7077 C.ar    1  UNL1       -0.0030
     23 C          -3.7590   -0.5879    3.0066 C.ar    1  UNL1       -0.0529
     24 C          -5.1100   -0.7674    3.3145 C.ar    1  UNL1       -0.0611
     25 C          -6.0808   -0.6032    2.3305 C.ar    1  UNL1       -0.0611
     26 C          -5.7080   -0.2521    1.0329 C.ar    1  UNL1       -0.0534
     27 C          -4.3570   -0.0622    0.7102 C.ar    1  UNL1       -0.0094
     28 C          -3.9068    0.3494   -0.6342 C.ar    1  UNL1       -0.0134
     29 C          -4.6511    0.7652   -1.6739 C.2     1  UNL1       -0.0719
     30 H          -3.9523    2.3174   -2.9812 H       1  UNL1        0.0350
     31 H          -3.8755    0.6726   -3.6805 H       1  UNL1        0.0350
     32 H          -1.4949    1.4362   -2.6484 H       1  UNL1        0.0581
     33 H           2.3671   -0.1039    2.3796 H       1  UNL1        0.0635
     34 H           4.3727   -2.0095    1.4572 H       1  UNL1        0.0624
     35 H           6.8237   -2.0351    1.7397 H       1  UNL1        0.0618
     36 H           8.2006   -0.1557    0.8845 H       1  UNL1        0.0618
     37 H           7.1067    1.7603   -0.2527 H       1  UNL1        0.0618
     38 H           4.6544    1.8027   -0.5342 H       1  UNL1        0.0624
     39 H           3.8197   -0.3343   -2.4864 H       1  UNL1        0.0813
     40 H           1.9266   -0.4908   -4.1131 H       1  UNL1        0.1648
     41 H          -0.3536   -0.4203   -3.0829 H       1  UNL1        0.0813
     42 H          -3.0306   -0.7389    3.7984 H       1  UNL1        0.0624
     43 H          -5.4019   -1.0422    4.3252 H       1  UNL1        0.0618
     44 H          -7.1305   -0.7476    2.5734 H       1  UNL1        0.0618
     45 H          -6.4841   -0.1282    0.2834 H       1  UNL1        0.0624
     46 H          -5.7273    0.8219   -1.7172 H       1  UNL1        0.0581
@<TRIPOS>BOND
     1     1     2    1
     2     2     3    2
     3     3     4   ar
     4     4     5   ar
     5     5     6   ar
     6     6     7   ar
     7     7     8   ar
     8     8     9   ar
     9     9    10    1
    10    10    11   ar
    11    11    12   ar
    12    12    13   ar
    13    13    14   ar
    14    14    15   ar
    15     9    16   ar
    16    16    17   ar
    17    17    18   ar
    18    18    19   ar
    19    19    20   ar
    20    20    21   ar
    21     5    22   ar
    22    22    23   ar
    23    23    24   ar
    24    24    25   ar
    25    25    26   ar
    26    26    27   ar
    27    27    28   ar
    28    28    29    2
    29    29     1    1
    30    28     3   ar
    31    21     4   ar
    32    27    22   ar
    33    21     7   ar
    34    15    10   ar
    35    20    16   ar
    36     1    30    1
    37     1    31    1
    38     2    32    1
    39     8    33    1
    40    11    34    1
    41    12    35    1
    42    13    36    1
    43    14    37    1
    44    15    38    1
    45    17    39    1
    46    18    40    1
    47    19    41    1
    48    23    42    1
    49    24    43    1
    50    25    44    1
    51    26    45    1
    52    29    46    1
