@<TRIPOS>MOLECULE
*****
 42 48 0 0 0
SMALL
GASTEIGER

@<TRIPOS>ATOM
      1 SI          1.4116   -3.7120   -1.9772 Si      1  UNL1        0.0000
      2 C           0.2906   -2.5034   -1.1126 C.2     1  UNL1        0.0000
      3 C           0.9754   -1.4499   -0.6181 C.ar    1  UNL1        0.0000
      4 C           0.3713   -0.3344    0.1181 C.ar    1  UNL1        0.0000
      5 C           1.1735    0.6596    0.5613 C.ar    1  UNL1        0.0000
      6 C           2.6261    0.6449    0.3356 C.ar    1  UNL1        0.0000
      7 C           3.4987    1.6545    0.7863 C.ar    1  UNL1        0.0000
      8 C           3.1317    2.7771    1.4936 C.ar    1  UNL1        0.0000
      9 S           4.4823    3.7771    1.8647 S.2     1  UNL1        0.0000
     10 C           5.5779    2.7132    1.0810 C.ar    1  UNL1        0.0000
     11 C           4.9241    1.6276    0.5528 C.ar    1  UNL1        0.0000
     12 C           5.6006    0.6211   -0.1329 C.ar    1  UNL1        0.0000
     13 C           4.7274   -0.3939   -0.5857 C.ar    1  UNL1        0.0000
     14 C           3.3049   -0.4000   -0.3718 C.ar    1  UNL1        0.0000
     15 C           2.4389   -1.4996   -0.8727 C.ar    1  UNL1        0.0000
     16 C           2.8470   -2.5882   -1.5593 C.2     1  UNL1        0.0000
     17 C          -1.0304   -0.1967    0.3811 C.ar    1  UNL1        0.0000
     18 C          -2.0240    0.2627   -0.4686 C.ar    1  UNL1        0.0000
     19 C          -3.2662    0.2229    0.1781 C.ar    1  UNL1        0.0000
     20 C          -3.2887   -0.2468    1.4816 C.ar    1  UNL1        0.0000
     21 C          -4.4855   -0.3426    2.2608 C.ar    1  UNL1        0.0000
     22 C          -5.7472    0.0392    1.7509 C.ar    1  UNL1        0.0000
     23 C          -5.6550    0.4975    0.4463 C.ar    1  UNL1        0.0000
     24 C          -6.6932    0.9425   -0.3362 C.ar    1  UNL1        0.0000
     25 O          -6.2252    1.3180   -1.5743 O.2     1  UNL1        0.0000
     26 C          -4.8663    1.1103   -1.5843 C.ar    1  UNL1        0.0000
     27 C          -4.5221    0.6155   -0.3663 C.ar    1  UNL1        0.0000
     28 S          -1.6724   -0.6615    1.9211 S.2     1  UNL1        0.0000
     29 H           1.1604   -3.7799   -3.4369 H       1  UNL1        0.0000
     30 H           1.4980   -5.0172   -1.2796 H       1  UNL1        0.0000
     31 H          -0.7707   -2.6842   -1.0437 H       1  UNL1        0.0000
     32 H           0.7506    1.5015    1.0981 H       1  UNL1        0.0000
     33 H           2.1534    3.0909    1.8273 H       1  UNL1        0.0000
     34 H           6.6330    2.9489    1.0560 H       1  UNL1        0.0000
     35 H           6.6676    0.5939   -0.3113 H       1  UNL1        0.0000
     36 H           5.1842   -1.2183   -1.1313 H       1  UNL1        0.0000
     37 H           3.8445   -2.8554   -1.8642 H       1  UNL1        0.0000
     38 H          -1.8339    0.5961   -1.4810 H       1  UNL1        0.0000
     39 H          -4.4213   -0.7227    3.2793 H       1  UNL1        0.0000
     40 H          -6.6586   -0.0285    2.3293 H       1  UNL1        0.0000
     41 H          -7.7586    1.0572   -0.1945 H       1  UNL1        0.0000
     42 H          -4.3543    1.3630   -2.5010 H       1  UNL1        0.0000
@<TRIPOS>BOND
     1     1     2    1
     2     2     3    2
     3     3     4   ar
     4     4     5   ar
     5     5     6   ar
     6     6     7   ar
     7     7     8   ar
     8     8     9   ar
     9     9    10   ar
    10    10    11   ar
    11    11    12   ar
    12    12    13   ar
    13    13    14   ar
    14    14    15   ar
    15    15    16    2
    16     4    17    1
    17    17    18   ar
    18    18    19   ar
    19    19    20   ar
    20    20    21   ar
    21    21    22   ar
    22    22    23   ar
    23    23    24   ar
    24    24    25   ar
    25    25    26   ar
    26    26    27   ar
    27    20    28   ar
    28    16     1    1
    29    28    17   ar
    30    15     3   ar
    31    27    19   ar
    32    14     6   ar
    33    27    23   ar
    34    11     7   ar
    35     1    29    1
    36     1    30    1
    37     2    31    1
    38     5    32    1
    39     8    33    1
    40    10    34    1
    41    12    35    1
    42    13    36    1
    43    16    37    1
    44    18    38    1
    45    21    39    1
    46    22    40    1
    47    24    41    1
    48    26    42    1
