@<TRIPOS>MOLECULE
*****
 43 49 0 0 0
SMALL
GASTEIGER

@<TRIPOS>ATOM
      1 C          -3.0784   -2.6744    1.9597 C.3     1  UNL1        0.0000
      2 C          -1.8015   -2.0203    1.5240 C.2     1  UNL1        0.0000
      3 C          -2.0555   -1.0474    0.6359 C.ar    1  UNL1        0.0000
      4 C          -1.1846   -0.1817   -0.1085 C.ar    1  UNL1        0.0000
      5 C          -1.7464    0.4789   -1.2024 C.ar    1  UNL1        0.0000
      6 S          -0.5662    1.2546   -2.1549 S.2     1  UNL1        0.0000
      7 C           0.6819    0.8289   -1.0712 C.ar    1  UNL1        0.0000
      8 C           2.0479    1.1401   -1.3554 C.ar    1  UNL1        0.0000
      9 C           3.0084    0.8341   -0.4489 C.ar    1  UNL1        0.0000
     10 C           4.4171    1.1014   -0.8414 C.ar    1  UNL1        0.0000
     11 N           5.3506    0.2323   -0.4410 N.ar    1  UNL1        0.0000
     12 C           6.5851    0.5160   -0.8458 C.ar    1  UNL1        0.0000
     13 N           6.9477    1.5590   -1.5866 N.ar    1  UNL1        0.0000
     14 C           5.9363    2.3516   -1.9283 C.ar    1  UNL1        0.0000
     15 N           4.6598    2.1797   -1.5971 N.ar    1  UNL1        0.0000
     16 C           2.5766    0.2819    0.8548 C.ar    1  UNL1        0.0000
     17 C           3.3797    0.1101    1.9277 C.2     1  UNL1        0.0000
     18 SI          2.4316   -0.4272    3.4337 Si      1  UNL1        0.0000
     19 C           0.8761   -0.3280    2.4180 C.2     1  UNL1        0.0000
     20 C           1.1333   -0.0262    1.1303 C.ar    1  UNL1        0.0000
     21 C           0.1911    0.1827    0.0605 C.ar    1  UNL1        0.0000
     22 C          -3.1849    0.4959   -1.5397 C.ar    1  UNL1        0.0000
     23 N          -3.5779    1.2646   -2.5856 N.ar    1  UNL1        0.0000
     24 C          -4.9010    1.2997   -2.8480 C.ar    1  UNL1        0.0000
     25 C          -5.8548    0.6087   -2.1159 C.ar    1  UNL1        0.0000
     26 C          -5.4342   -0.1773   -1.0449 C.ar    1  UNL1        0.0000
     27 C          -4.0751   -0.2457   -0.7394 C.ar    1  UNL1        0.0000
     28 C          -3.4974   -1.0604    0.3411 C.ar    1  UNL1        0.0000
     29 C          -4.1021   -1.9756    1.1172 C.2     1  UNL1        0.0000
     30 H          -3.2628   -2.5150    3.0260 H       1  UNL1        0.0000
     31 H          -3.0617   -3.7468    1.7441 H       1  UNL1        0.0000
     32 H          -0.8313   -2.3442    1.8629 H       1  UNL1        0.0000
     33 H           2.2937    1.5707   -2.3227 H       1  UNL1        0.0000
     34 H           7.3703   -0.1682   -0.5424 H       1  UNL1        0.0000
     35 H           6.1736    3.2186   -2.5355 H       1  UNL1        0.0000
     36 H           4.4385    0.3027    1.9939 H       1  UNL1        0.0000
     37 H           2.4645    0.5809    4.5201 H       1  UNL1        0.0000
     38 H           2.7455   -1.8166    3.8458 H       1  UNL1        0.0000
     39 H          -0.0839   -0.4638    2.8845 H       1  UNL1        0.0000
     40 H          -5.1869    1.9223   -3.6914 H       1  UNL1        0.0000
     41 H          -6.9054    0.6796   -2.3763 H       1  UNL1        0.0000
     42 H          -6.1696   -0.7258   -0.4652 H       1  UNL1        0.0000
     43 H          -5.1477   -2.2414    1.1084 H       1  UNL1        0.0000
@<TRIPOS>BOND
     1     1     2    1
     2     2     3    2
     3     3     4   ar
     4     4     5   ar
     5     5     6   ar
     6     6     7   ar
     7     7     8   ar
     8     8     9   ar
     9     9    10    1
    10    10    11   ar
    11    11    12   ar
    12    12    13   ar
    13    13    14   ar
    14    14    15   ar
    15     9    16   ar
    16    16    17    2
    17    17    18    1
    18    18    19    1
    19    19    20    2
    20    20    21   ar
    21     5    22   ar
    22    22    23   ar
    23    23    24   ar
    24    24    25   ar
    25    25    26   ar
    26    26    27   ar
    27    27    28   ar
    28    28    29    2
    29    29     1    1
    30    28     3   ar
    31    21     4   ar
    32    27    22   ar
    33    21     7   ar
    34    15    10   ar
    35    20    16   ar
    36     1    30    1
    37     1    31    1
    38     2    32    1
    39     8    33    1
    40    12    34    1
    41    14    35    1
    42    17    36    1
    43    18    37    1
    44    18    38    1
    45    19    39    1
    46    24    40    1
    47    25    41    1
    48    26    42    1
    49    29    43    1
