@<TRIPOS>MOLECULE
*****
 44 50 0 0 0
SMALL
GASTEIGER

@<TRIPOS>ATOM
      1 C          -0.0726   -0.7731    3.6014 C.3     1  UNL1        0.0000
      2 C           1.1460   -0.8069    2.7325 C.2     1  UNL1        0.0000
      3 C           0.8020   -0.5056    1.4714 C.ar    1  UNL1        0.0000
      4 C           1.6615   -0.2484    0.3394 C.ar    1  UNL1        0.0000
      5 C           3.1082   -0.4425    0.2289 C.2     1  UNL1        0.0000
      6 C           3.6596   -0.0927   -0.9532 C.2     1  UNL1        0.0000
      7 SI          2.3236    0.5791   -2.1185 Si      1  UNL1        0.0000
      8 C           1.0774    0.2746   -0.7680 C.ar    1  UNL1        0.0000
      9 C          -0.3696    0.5207   -0.9054 C.ar    1  UNL1        0.0000
     10 N          -0.7591    1.1291   -2.0482 N.ar    1  UNL1        0.0000
     11 C          -2.0856    1.3101   -2.2341 C.ar    1  UNL1        0.0000
     12 C          -3.0936    0.8423   -1.3988 C.ar    1  UNL1        0.0000
     13 C          -4.4735    1.0650   -1.7769 C.ar    1  UNL1        0.0000
     14 C          -5.5952    0.5722   -1.0829 C.ar    1  UNL1        0.0000
     15 C          -5.1807   -0.2055   -0.0194 C.ar    1  UNL1        0.0000
     16 C          -6.0220   -0.9384    0.7768 C.ar    1  UNL1        0.0000
     17 N          -5.2238   -1.6630    1.6297 N.ar    1  UNL1        0.0000
     18 C          -3.8945   -1.4020    1.3687 C.ar    1  UNL1        0.0000
     19 C          -3.8299   -0.4286    0.3987 C.ar    1  UNL1        0.0000
     20 C          -2.6670    0.1384   -0.2178 C.ar    1  UNL1        0.0000
     21 C          -1.2721    0.0893    0.0989 C.ar    1  UNL1        0.0000
     22 C          -0.6495   -0.3117    1.3833 C.ar    1  UNL1        0.0000
     23 C          -1.1486   -0.3883    2.6291 C.2     1  UNL1        0.0000
     24 C           5.0478   -0.1754   -1.2457 C.ar    1  UNL1        0.0000
     25 C           6.1230   -0.0800   -0.3713 C.ar    1  UNL1        0.0000
     26 C           7.3908   -0.2232   -1.0055 C.ar    1  UNL1        0.0000
     27 C           7.2635   -0.4336   -2.3567 C.ar    1  UNL1        0.0000
     28 S           5.6309   -0.4575   -2.8482 S.2     1  UNL1        0.0000
     29 H           0.0299   -0.0199    4.3883 H       1  UNL1        0.0000
     30 H          -0.2725   -1.7506    4.0495 H       1  UNL1        0.0000
     31 H           2.1471   -0.9634    3.1028 H       1  UNL1        0.0000
     32 H           3.6656   -0.8493    1.0632 H       1  UNL1        0.0000
     33 H           2.5538    2.0193   -2.4144 H       1  UNL1        0.0000
     34 H           2.1438   -0.3029   -3.3034 H       1  UNL1        0.0000
     35 H          -2.3244    1.8447   -3.1516 H       1  UNL1        0.0000
     36 H          -4.6750    1.6420   -2.6823 H       1  UNL1        0.0000
     37 H          -6.6157    0.7316   -1.3987 H       1  UNL1        0.0000
     38 H          -7.0978   -1.0489    0.7954 H       1  UNL1        0.0000
     39 H          -5.5586   -2.3358    2.3073 H       1  UNL1        0.0000
     40 H          -3.1360   -1.9683    1.8883 H       1  UNL1        0.0000
     41 H          -2.1588   -0.1664    2.9331 H       1  UNL1        0.0000
     42 H           6.0053    0.0973    0.6911 H       1  UNL1        0.0000
     43 H           8.3442   -0.1741   -0.4944 H       1  UNL1        0.0000
     44 H           8.0522   -0.5764   -3.0824 H       1  UNL1        0.0000
@<TRIPOS>BOND
     1     1     2    1
     2     2     3    2
     3     3     4   ar
     4     4     5    1
     5     5     6    2
     6     6     7    1
     7     7     8    1
     8     8     9   ar
     9     9    10   ar
    10    10    11   ar
    11    11    12   ar
    12    12    13   ar
    13    13    14   ar
    14    14    15   ar
    15    15    16   ar
    16    16    17   ar
    17    17    18   ar
    18    18    19   ar
    19    19    20   ar
    20    20    21   ar
    21    21    22   ar
    22    22    23    2
    23     6    24    1
    24    24    25   ar
    25    25    26   ar
    26    26    27   ar
    27    27    28   ar
    28    23     1    1
    29    28    24   ar
    30    22     3   ar
    31     8     4   ar
    32    21     9   ar
    33    20    12   ar
    34    19    15   ar
    35     1    29    1
    36     1    30    1
    37     2    31    1
    38     5    32    1
    39     7    33    1
    40     7    34    1
    41    11    35    1
    42    13    36    1
    43    14    37    1
    44    16    38    1
    45    17    39    1
    46    18    40    1
    47    23    41    1
    48    25    42    1
    49    26    43    1
    50    27    44    1
