@<TRIPOS>MOLECULE
*****
 48 55 0 0 0
SMALL
GASTEIGER

@<TRIPOS>ATOM
      1 C           2.0758   -3.5826    1.1252 C.3     1  UNL1        0.0000
      2 C           0.6470   -3.1831    0.9259 C.2     1  UNL1        0.0000
      3 C           0.5865   -1.8750    0.6356 C.ar    1  UNL1        0.0000
      4 C          -0.5780   -1.0260    0.5449 C.ar    1  UNL1        0.0000
      5 C          -1.9904   -1.4100    0.5369 C.2     1  UNL1        0.0000
      6 C          -2.8651   -0.3857    0.4701 C.2     1  UNL1        0.0000
      7 SI         -1.9590    1.2654    0.4230 Si      1  UNL1        0.0000
      8 C          -0.3587    0.3126    0.4895 C.ar    1  UNL1        0.0000
      9 C           0.9775    0.9321    0.4398 C.ar    1  UNL1        0.0000
     10 N           1.0059    2.2819    0.4869 N.ar    1  UNL1        0.0000
     11 C           2.2138    2.8795    0.3917 C.ar    1  UNL1        0.0000
     12 C           3.4201    2.2342    0.1420 C.ar    1  UNL1        0.0000
     13 C           4.6157    3.0277    0.0154 C.ar    1  UNL1        0.0000
     14 C           5.8847    2.5251   -0.3220 C.ar    1  UNL1        0.0000
     15 C           5.8249    1.1664   -0.5952 C.ar    1  UNL1        0.0000
     16 C           6.9239    0.4878   -1.0629 C.ar    1  UNL1        0.0000
     17 S           6.5258   -1.1303   -1.4610 S.2     1  UNL1        0.0000
     18 C           4.8818   -0.9031   -1.0132 C.ar    1  UNL1        0.0000
     19 C           4.6472    0.3364   -0.4613 C.ar    1  UNL1        0.0000
     20 C           3.3683    0.8043    0.0069 C.ar    1  UNL1        0.0000
     21 C           2.1390    0.1306    0.3033 C.ar    1  UNL1        0.0000
     22 C           1.9410   -1.3182    0.5558 C.ar    1  UNL1        0.0000
     23 C           2.8026   -2.2854    0.9174 C.2     1  UNL1        0.0000
     24 C          -4.2729   -0.5090    0.4506 C.ar    1  UNL1        0.0000
     25 S          -5.0935   -1.4785    1.6521 S.2     1  UNL1        0.0000
     26 C          -6.6593   -1.1522    1.0096 C.ar    1  UNL1        0.0000
     27 C          -6.5399   -0.3408   -0.0738 C.ar    1  UNL1        0.0000
     28 C          -7.4342    0.2424   -1.0043 C.2     1  UNL1        0.0000
     29 C          -6.7291    0.9639   -1.9045 C.2     1  UNL1        0.0000
     30 C          -5.2269    0.9072   -1.6089 C.3     1  UNL1        0.0000
     31 C          -5.2138    0.0325   -0.3962 C.ar    1  UNL1        0.0000
     32 H           2.3875   -4.3345    0.3946 H       1  UNL1        0.0000
     33 H           2.2374   -3.9622    2.1384 H       1  UNL1        0.0000
     34 H          -0.1925   -3.8415    1.0883 H       1  UNL1        0.0000
     35 H          -2.2789   -2.4532    0.5741 H       1  UNL1        0.0000
     36 H          -2.2401    2.0739    1.6394 H       1  UNL1        0.0000
     37 H          -2.1968    1.9583   -0.8738 H       1  UNL1        0.0000
     38 H           2.1693    3.9622    0.4943 H       1  UNL1        0.0000
     39 H           4.5442    4.1060    0.1764 H       1  UNL1        0.0000
     40 H           6.7598    3.1533   -0.4215 H       1  UNL1        0.0000
     41 H           7.9275    0.8536   -1.2321 H       1  UNL1        0.0000
     42 H           4.1916   -1.7100   -1.2056 H       1  UNL1        0.0000
     43 H           3.8625   -2.1800    1.0873 H       1  UNL1        0.0000
     44 H          -7.5454   -1.5757    1.4601 H       1  UNL1        0.0000
     45 H          -8.5079    0.1205   -0.9904 H       1  UNL1        0.0000
     46 H          -7.1525    1.5158   -2.7303 H       1  UNL1        0.0000
     47 H          -4.8431    1.9086   -1.3966 H       1  UNL1        0.0000
     48 H          -4.6832    0.4545   -2.4427 H       1  UNL1        0.0000
@<TRIPOS>BOND
     1     1     2    1
     2     2     3    2
     3     3     4   ar
     4     4     5    1
     5     5     6    2
     6     6     7    1
     7     7     8    1
     8     8     9   ar
     9     9    10   ar
    10    10    11   ar
    11    11    12   ar
    12    12    13   ar
    13    13    14   ar
    14    14    15   ar
    15    15    16   ar
    16    16    17   ar
    17    17    18   ar
    18    18    19   ar
    19    19    20   ar
    20    20    21   ar
    21    21    22   ar
    22    22    23    2
    23     6    24    1
    24    24    25   ar
    25    25    26   ar
    26    26    27   ar
    27    27    28    1
    28    28    29    2
    29    29    30    1
    30    30    31    1
    31    23     1    1
    32    31    24   ar
    33    22     3   ar
    34    31    27   ar
    35     8     4   ar
    36    21     9   ar
    37    20    12   ar
    38    19    15   ar
    39     1    32    1
    40     1    33    1
    41     2    34    1
    42     5    35    1
    43     7    36    1
    44     7    37    1
    45    11    38    1
    46    13    39    1
    47    14    40    1
    48    16    41    1
    49    18    42    1
    50    23    43    1
    51    26    44    1
    52    28    45    1
    53    29    46    1
    54    30    47    1
    55    30    48    1
