@<TRIPOS>MOLECULE
*****
 42 48 0 0 0
SMALL
GASTEIGER

@<TRIPOS>ATOM
      1 C          -0.1571   -2.8985   -2.5199 C.3     1  UNL1        0.0000
      2 C           1.0588   -2.2184   -1.9672 C.2     1  UNL1        0.0000
      3 C           0.6830   -1.2353   -1.1349 C.ar    1  UNL1        0.0000
      4 C           1.5180   -0.3595   -0.3245 C.ar    1  UNL1        0.0000
      5 C           2.9798   -0.2881   -0.2559 C.2     1  UNL1        0.0000
      6 C           3.4819    0.6306    0.5998 C.2     1  UNL1        0.0000
      7 SI          2.0687    1.5514    1.4772 Si      1  UNL1        0.0000
      8 C           0.8943    0.5143    0.5063 C.ar    1  UNL1        0.0000
      9 C          -0.5238    0.5857    0.5505 C.ar    1  UNL1        0.0000
     10 O          -1.2605    1.4181    1.3582 O.2     1  UNL1        0.0000
     11 C          -2.5791    1.2191    1.0717 C.ar    1  UNL1        0.0000
     12 C          -3.6518    1.8980    1.6940 C.ar    1  UNL1        0.0000
     13 C          -4.9762    1.6356    1.2964 C.ar    1  UNL1        0.0000
     14 C          -5.0457    0.7037    0.2686 C.ar    1  UNL1        0.0000
     15 C          -6.2149    0.3046   -0.3336 C.ar    1  UNL1        0.0000
     16 N          -5.8816   -0.5920   -1.3310 N.ar    1  UNL1        0.0000
     17 C          -4.5105   -0.7701   -1.3795 C.ar    1  UNL1        0.0000
     18 C          -4.0046    0.0051   -0.3800 C.ar    1  UNL1        0.0000
     19 C          -2.6753    0.2641    0.0726 C.ar    1  UNL1        0.0000
     20 C          -1.3951   -0.1952   -0.2382 C.ar    1  UNL1        0.0000
     21 C          -0.7932   -1.1715   -1.0899 C.ar    1  UNL1        0.0000
     22 C          -1.2813   -2.1495   -1.8633 C.2     1  UNL1        0.0000
     23 C           4.8687    0.8330    0.8350 C.ar    1  UNL1        0.0000
     24 C           5.9058   -0.0858    0.7354 C.ar    1  UNL1        0.0000
     25 C           7.1869    0.4633    1.0308 C.ar    1  UNL1        0.0000
     26 C           7.1089    1.7980    1.3452 C.ar    1  UNL1        0.0000
     27 S           5.5060    2.3762    1.2821 S.2     1  UNL1        0.0000
     28 H          -0.2034   -2.8044   -3.6087 H       1  UNL1        0.0000
     29 H          -0.1755   -3.9560   -2.2402 H       1  UNL1        0.0000
     30 H           2.0715   -2.5136   -2.1933 H       1  UNL1        0.0000
     31 H           3.5843   -0.9432   -0.8703 H       1  UNL1        0.0000
     32 H           2.0563    1.2652    2.9368 H       1  UNL1        0.0000
     33 H           2.0327    2.9926    1.1110 H       1  UNL1        0.0000
     34 H          -3.4459    2.6249    2.4737 H       1  UNL1        0.0000
     35 H          -5.8277    2.1344    1.7395 H       1  UNL1        0.0000
     36 H          -7.2483    0.5761   -0.1654 H       1  UNL1        0.0000
     37 H          -6.5443   -1.0363   -1.9531 H       1  UNL1        0.0000
     38 H          -4.0828   -1.4048   -2.1356 H       1  UNL1        0.0000
     39 H          -2.3111   -2.4188   -1.9975 H       1  UNL1        0.0000
     40 H           5.7507   -1.1243    0.4680 H       1  UNL1        0.0000
     41 H           8.1152   -0.0941    1.0126 H       1  UNL1        0.0000
     42 H           7.9181    2.4653    1.6083 H       1  UNL1        0.0000
@<TRIPOS>BOND
     1     1     2    1
     2     2     3    2
     3     3     4   ar
     4     4     5    1
     5     5     6    2
     6     6     7    1
     7     7     8    1
     8     8     9   ar
     9     9    10   ar
    10    10    11   ar
    11    11    12   ar
    12    12    13   ar
    13    13    14   ar
    14    14    15   ar
    15    15    16   ar
    16    16    17   ar
    17    17    18   ar
    18    18    19   ar
    19    19    20   ar
    20    20    21   ar
    21    21    22    2
    22     6    23    1
    23    23    24   ar
    24    24    25   ar
    25    25    26   ar
    26    26    27   ar
    27    22     1    1
    28    27    23   ar
    29    21     3   ar
    30     8     4   ar
    31    20     9   ar
    32    19    11   ar
    33    18    14   ar
    34     1    28    1
    35     1    29    1
    36     2    30    1
    37     5    31    1
    38     7    32    1
    39     7    33    1
    40    12    34    1
    41    13    35    1
    42    15    36    1
    43    16    37    1
    44    17    38    1
    45    22    39    1
    46    24    40    1
    47    25    41    1
    48    26    42    1
