@<TRIPOS>MOLECULE
*****
 46 52 0 0 0
SMALL
GASTEIGER

@<TRIPOS>ATOM
      1 C          -2.8149    2.1175    2.9582 C.3     1  UNL1        0.0000
      2 C          -1.4663    1.5830    2.5626 C.2     1  UNL1        0.0000
      3 C          -1.5876    0.8228    1.4631 C.ar    1  UNL1        0.0000
      4 C          -0.5675    0.0991    0.7148 C.ar    1  UNL1        0.0000
      5 C           0.8690    0.0288    0.9939 C.2     1  UNL1        0.0000
      6 C           1.5877   -0.7157    0.1292 C.2     1  UNL1        0.0000
      7 SI          0.4818   -1.4624   -1.2072 Si      1  UNL1        0.0000
      8 C          -0.9563   -0.6103   -0.3848 C.ar    1  UNL1        0.0000
      9 C          -2.3332   -0.6321   -0.7784 C.ar    1  UNL1        0.0000
     10 S          -2.9661   -1.4868   -2.1471 S.2     1  UNL1        0.0000
     11 C          -4.5165   -0.9566   -1.8105 C.ar    1  UNL1        0.0000
     12 C          -5.7653   -1.1633   -2.4305 C.2     1  UNL1        0.0000
     13 C          -6.6714   -0.4737   -1.7000 C.2     1  UNL1        0.0000
     14 C          -6.0226    0.2500   -0.5113 C.3     1  UNL1        0.0000
     15 C          -4.6053   -0.1520   -0.7027 C.ar    1  UNL1        0.0000
     16 C          -3.3573    0.0458   -0.0955 C.ar    1  UNL1        0.0000
     17 C          -2.9981    0.7999    1.0593 C.ar    1  UNL1        0.0000
     18 C          -3.7221    1.5403    1.9085 C.2     1  UNL1        0.0000
     19 C           3.0279   -0.9605    0.1691 C.ar    1  UNL1        0.0000
     20 C           3.4686   -2.0897    0.8777 C.ar    1  UNL1        0.0000
     21 C           4.8245   -2.3877    0.9627 C.ar    1  UNL1        0.0000
     22 C           5.7563   -1.5563    0.3466 C.ar    1  UNL1        0.0000
     23 C           5.3493   -0.4123   -0.3568 C.ar    1  UNL1        0.0000
     24 C           6.3051    0.4187   -0.9651 C.ar    1  UNL1        0.0000
     25 C           5.9225    1.5631   -1.6632 C.ar    1  UNL1        0.0000
     26 C           4.5776    1.8936   -1.7609 C.ar    1  UNL1        0.0000
     27 C           3.6152    1.0773   -1.1625 C.ar    1  UNL1        0.0000
     28 C           3.9707   -0.0937   -0.4510 C.ar    1  UNL1        0.0000
     29 H          -2.8275    3.2110    2.9305 H       1  UNL1        0.0000
     30 H          -3.0976    1.7702    3.9563 H       1  UNL1        0.0000
     31 H          -0.5525    1.7923    3.0966 H       1  UNL1        0.0000
     32 H           1.3005    0.5484    1.8404 H       1  UNL1        0.0000
     33 H           0.4242   -2.9450   -1.1091 H       1  UNL1        0.0000
     34 H           0.7935   -0.9161   -2.5541 H       1  UNL1        0.0000
     35 H          -5.9468   -1.7572   -3.3135 H       1  UNL1        0.0000
     36 H          -7.7294   -0.4262   -1.9123 H       1  UNL1        0.0000
     37 H          -6.4298   -0.1170    0.4349 H       1  UNL1        0.0000
     38 H          -6.1580    1.3318   -0.5955 H       1  UNL1        0.0000
     39 H          -4.7859    1.7087    1.8645 H       1  UNL1        0.0000
     40 H           2.7525   -2.7453    1.3695 H       1  UNL1        0.0000
     41 H           5.1558   -3.2661    1.5100 H       1  UNL1        0.0000
     42 H           6.8122   -1.8071    0.4246 H       1  UNL1        0.0000
     43 H           7.3642    0.1791   -0.8976 H       1  UNL1        0.0000
     44 H           6.6750    2.1950   -2.1271 H       1  UNL1        0.0000
     45 H           4.2717    2.7858   -2.3007 H       1  UNL1        0.0000
     46 H           2.5719    1.3709   -1.2554 H       1  UNL1        0.0000
@<TRIPOS>BOND
     1     1     2    1
     2     2     3    2
     3     3     4   ar
     4     4     5    1
     5     5     6    2
     6     6     7    1
     7     7     8    1
     8     8     9   ar
     9     9    10   ar
    10    10    11   ar
    11    11    12    1
    12    12    13    2
    13    13    14    1
    14    14    15    1
    15    15    16   ar
    16    16    17   ar
    17    17    18    2
    18     6    19    1
    19    19    20   ar
    20    20    21   ar
    21    21    22   ar
    22    22    23   ar
    23    23    24   ar
    24    24    25   ar
    25    25    26   ar
    26    26    27   ar
    27    27    28   ar
    28    18     1    1
    29    28    19   ar
    30    17     3   ar
    31    28    23   ar
    32     8     4   ar
    33    16     9   ar
    34    15    11   ar
    35     1    29    1
    36     1    30    1
    37     2    31    1
    38     5    32    1
    39     7    33    1
    40     7    34    1
    41    12    35    1
    42    13    36    1
    43    14    37    1
    44    14    38    1
    45    18    39    1
    46    20    40    1
    47    21    41    1
    48    22    42    1
    49    24    43    1
    50    25    44    1
    51    26    45    1
    52    27    46    1
