@<TRIPOS>MOLECULE
*****
 48 54 0 0 0
SMALL
GASTEIGER

@<TRIPOS>ATOM
      1 C          -0.4586    3.3063    3.2018 C.3     1  UNL1        0.0000
      2 C           0.7499    2.6694    2.5995 C.2     1  UNL1        0.0000
      3 C           0.3623    1.7532    1.7007 C.ar    1  UNL1        0.0000
      4 C           1.1675    0.8403    0.9551 C.ar    1  UNL1        0.0000
      5 C           2.5986    0.8156    0.7612 C.2     1  UNL1        0.0000
      6 C           2.9236   -0.1736   -0.0819 C.2     1  UNL1        0.0000
      7 C           1.6639   -0.9128   -0.4660 C.3     1  UNL1        0.0000
      8 C           0.5750   -0.1506    0.2494 C.ar    1  UNL1        0.0000
      9 C          -0.9253   -0.3028    0.1110 C.ar    1  UNL1        0.0000
     10 C          -1.5471   -1.3826   -0.6307 C.ar    1  UNL1        0.0000
     11 C          -0.8922   -2.5812   -1.0286 C.ar    1  UNL1        0.0000
     12 C          -1.5007   -3.5923   -1.7780 C.ar    1  UNL1        0.0000
     13 C          -2.8178   -3.4581   -2.1551 C.ar    1  UNL1        0.0000
     14 C          -3.5193   -2.3269   -1.7542 C.ar    1  UNL1        0.0000
     15 C          -2.9252   -1.2918   -0.9848 C.ar    1  UNL1        0.0000
     16 C          -3.6682   -0.1693   -0.5633 C.ar    1  UNL1        0.0000
     17 C          -5.0922    0.0904   -0.9164 C.2     1  UNL1        0.0000
     18 C          -5.6071    1.2279   -0.4267 C.2     1  UNL1        0.0000
     19 SI         -4.3844    2.1741    0.5829 Si      1  UNL1        0.0000
     20 C          -3.0869    0.8303    0.2701 C.ar    1  UNL1        0.0000
     21 C          -1.7440    0.7548    0.6639 C.ar    1  UNL1        0.0000
     22 C          -1.0900    1.7195    1.5947 C.ar    1  UNL1        0.0000
     23 C          -1.5768    2.5911    2.4986 C.2     1  UNL1        0.0000
     24 C           4.2310   -0.5222   -0.5559 C.2     1  UNL1        0.0000
     25 C           4.5545   -1.5155   -1.4018 C.2     1  UNL1        0.0000
     26 C           5.9778   -1.5265   -1.6226 C.2     1  UNL1        0.0000
     27 C           6.5457   -0.5405   -0.9156 C.2     1  UNL1        0.0000
     28 C           5.4897    0.2105   -0.1557 C.3     1  UNL1        0.0000
     29 H          -0.4872    4.3808    2.9998 H       1  UNL1        0.0000
     30 H          -0.4995    3.1317    4.2810 H       1  UNL1        0.0000
     31 H           1.7645    2.8889    2.8927 H       1  UNL1        0.0000
     32 H           3.2727    1.5248    1.2155 H       1  UNL1        0.0000
     33 H           1.7569   -1.9347   -0.0879 H       1  UNL1        0.0000
     34 H           1.5156   -0.9017   -1.5508 H       1  UNL1        0.0000
     35 H           0.1184   -2.7973   -0.7172 H       1  UNL1        0.0000
     36 H          -0.9399   -4.4831   -2.0478 H       1  UNL1        0.0000
     37 H          -3.3091   -4.2325   -2.7368 H       1  UNL1        0.0000
     38 H          -4.5630   -2.2766   -2.0506 H       1  UNL1        0.0000
     39 H          -5.6721   -0.5813   -1.5324 H       1  UNL1        0.0000
     40 H          -6.6139    1.5851   -0.5800 H       1  UNL1        0.0000
     41 H          -4.0354    3.4763   -0.0382 H       1  UNL1        0.0000
     42 H          -4.8085    2.2588    2.0040 H       1  UNL1        0.0000
     43 H          -2.6029    2.7763    2.7613 H       1  UNL1        0.0000
     44 H           3.8796   -2.2176   -1.8673 H       1  UNL1        0.0000
     45 H           6.4876   -2.2295   -2.2638 H       1  UNL1        0.0000
     46 H           7.5997   -0.3102   -0.8884 H       1  UNL1        0.0000
     47 H           5.6700    0.1453    0.9221 H       1  UNL1        0.0000
     48 H           5.4630    1.2598   -0.4669 H       1  UNL1        0.0000
@<TRIPOS>BOND
     1     1     2    1
     2     2     3    2
     3     3     4   ar
     4     4     5    1
     5     5     6    2
     6     6     7    1
     7     7     8    1
     8     8     9   ar
     9     9    10   ar
    10    10    11   ar
    11    11    12   ar
    12    12    13   ar
    13    13    14   ar
    14    14    15   ar
    15    15    16   ar
    16    16    17    1
    17    17    18    2
    18    18    19    1
    19    19    20    1
    20    20    21   ar
    21    21    22   ar
    22    22    23    2
    23     6    24    1
    24    24    25    2
    25    25    26    1
    26    26    27    2
    27    27    28    1
    28    23     1    1
    29    28    24    1
    30    22     3   ar
    31     8     4   ar
    32    21     9   ar
    33    15    10   ar
    34    20    16   ar
    35     1    29    1
    36     1    30    1
    37     2    31    1
    38     5    32    1
    39     7    33    1
    40     7    34    1
    41    11    35    1
    42    12    36    1
    43    13    37    1
    44    14    38    1
    45    17    39    1
    46    18    40    1
    47    19    41    1
    48    19    42    1
    49    23    43    1
    50    25    44    1
    51    26    45    1
    52    27    46    1
    53    28    47    1
    54    28    48    1
