@<TRIPOS>MOLECULE
*****
 45 52 0 0 0
SMALL
GASTEIGER

@<TRIPOS>ATOM
      1 C           1.4015    4.1972   -0.4408 C.3     1  UNL1       -0.0148
      2 C           0.1066    3.4557   -0.3526 C.2     1  UNL1       -0.0720
      3 C           0.3523    2.1492   -0.1794 C.ar    1  UNL1       -0.0137
      4 C          -0.5905    1.0708   -0.0447 C.ar    1  UNL1       -0.0132
      5 C          -2.0361    1.0684   -0.0544 C.2     1  UNL1       -0.0496
      6 C          -2.5017   -0.1832    0.1065 C.2     1  UNL1       -0.0317
      7 C          -1.3160   -1.1187    0.2373 C.3     1  UNL1       -0.0006
      8 C          -0.1447   -0.1925    0.1241 C.ar    1  UNL1       -0.0269
      9 C           1.2897   -0.5114    0.1761 C.ar    1  UNL1       -0.0005
     10 C           1.8382   -1.7896    0.3476 C.ar    1  UNL1        0.0285
     11 C           1.2086   -3.0061    0.5022 C.ar    1  UNL1        0.1000
     12 O           2.1242   -4.0226    0.6421 O.2     1  UNL1       -0.4698
     13 C           3.3723   -3.4623    0.5779 C.ar    1  UNL1        0.1000
     14 C           3.2012   -2.1273    0.4018 C.ar    1  UNL1        0.0296
     15 C           4.1580   -1.0942    0.2735 C.ar    1  UNL1        0.0110
     16 C           5.5471   -1.1728    0.2941 C.ar    1  UNL1       -0.0360
     17 C           5.9634    0.1297    0.1267 C.ar    1  UNL1        0.0028
     18 N           4.8507    0.9391    0.0125 N.ar    1  UNL1       -0.3601
     19 C           3.6859    0.2006    0.1005 C.ar    1  UNL1        0.0556
     20 C           2.2970    0.5256    0.0476 C.ar    1  UNL1        0.0144
     21 C           1.8014    1.9115   -0.1378 C.ar    1  UNL1       -0.0115
     22 C           2.4167    3.0981   -0.2893 C.2     1  UNL1       -0.0719
     23 C          -3.8840   -0.6659    0.1603 C.ar    1  UNL1        0.0247
     24 C          -4.2342   -2.0160    0.3344 C.ar    1  UNL1        0.0372
     25 N          -5.4873   -2.5778    0.3994 N.ar    1  UNL1       -0.2604
     26 C          -6.5991   -1.8002    0.2904 C.ar    1  UNL1        0.0557
     27 C          -6.4237   -0.4156    0.1106 C.ar    1  UNL1        0.1185
     28 N          -7.4026    0.4950   -0.0149 N.ar    1  UNL1       -0.1892
     29 S          -6.6548    1.9615   -0.2015 S.2     1  UNL1        0.1165
     30 N          -5.0648    1.5072   -0.1316 N.ar    1  UNL1       -0.1901
     31 C          -5.0292    0.1721    0.0431 C.ar    1  UNL1        0.1102
     32 H           1.4934    4.9304    0.3658 H       1  UNL1        0.0350
     33 H           1.5060    4.6975   -1.4079 H       1  UNL1        0.0350
     34 H          -0.8661    3.9181   -0.4203 H       1  UNL1        0.0581
     35 H          -2.6112    1.9729   -0.1770 H       1  UNL1        0.0627
     36 H          -1.3290   -1.6195    1.2113 H       1  UNL1        0.0362
     37 H          -1.3166   -1.8536   -0.5748 H       1  UNL1        0.0362
     38 H           0.1842   -3.3419    0.5387 H       1  UNL1        0.1036
     39 H           4.2079   -4.1397    0.6727 H       1  UNL1        0.1036
     40 H           6.1817   -2.0403    0.4125 H       1  UNL1        0.0639
     41 H           6.9550    0.5597    0.0779 H       1  UNL1        0.0807
     42 H           4.8963    1.9367   -0.1176 H       1  UNL1        0.1654
     43 H           3.4696    3.3070   -0.3094 H       1  UNL1        0.0581
     44 H          -3.4523   -2.7690    0.4380 H       1  UNL1        0.0836
     45 H          -7.5649   -2.2842    0.3472 H       1  UNL1        0.0852
@<TRIPOS>BOND
     1     1     2    1
     2     2     3    2
     3     3     4   ar
     4     4     5    1
     5     5     6    2
     6     6     7    1
     7     7     8    1
     8     8     9   ar
     9     9    10   ar
    10    10    11   ar
    11    11    12   ar
    12    12    13   ar
    13    13    14   ar
    14    14    15   ar
    15    15    16   ar
    16    16    17   ar
    17    17    18   ar
    18    18    19   ar
    19    19    20   ar
    20    20    21   ar
    21    21    22    2
    22     6    23    1
    23    23    24   ar
    24    24    25   ar
    25    25    26   ar
    26    26    27   ar
    27    27    28   ar
    28    28    29   ar
    29    29    30   ar
    30    30    31   ar
    31    22     1    1
    32    31    23   ar
    33    21     3   ar
    34    31    27   ar
    35     8     4   ar
    36    20     9   ar
    37    14    10   ar
    38    19    15   ar
    39     1    32    1
    40     1    33    1
    41     2    34    1
    42     5    35    1
    43     7    36    1
    44     7    37    1
    45    11    38    1
    46    13    39    1
    47    16    40    1
    48    17    41    1
    49    18    42    1
    50    22    43    1
    51    24    44    1
    52    26    45    1
