@<TRIPOS>MOLECULE
*****
 40 46 0 0 0
SMALL
GASTEIGER

@<TRIPOS>ATOM
      1 C          -1.9903    3.5415   -1.2756 C.3     1  UNL1       -0.0148
      2 C          -0.5723    3.0845   -1.0885 C.2     1  UNL1       -0.0719
      3 C          -0.5656    1.8187   -0.6461 C.ar    1  UNL1       -0.0137
      4 C           0.5477    0.9616   -0.3251 C.ar    1  UNL1       -0.0131
      5 C           1.9756    1.1854   -0.3758 C.2     1  UNL1       -0.0483
      6 C           2.6393    0.0823    0.0224 C.2     1  UNL1       -0.0192
      7 C           1.6163   -0.9889    0.3771 C.3     1  UNL1        0.0008
      8 C           0.3152   -0.2962    0.1100 C.ar    1  UNL1       -0.0253
      9 C          -1.0448   -0.8397    0.2735 C.ar    1  UNL1        0.0185
     10 C          -1.2926   -2.1644    0.7317 C.ar    1  UNL1        0.1087
     11 N          -0.3914   -3.1087    1.0792 N.ar    1  UNL1       -0.1901
     12 S          -1.2449   -4.4727    1.5392 S.2     1  UNL1        0.1165
     13 N          -2.8192   -3.9411    1.3228 N.ar    1  UNL1       -0.1900
     14 C          -2.6405   -2.7020    0.8933 C.ar    1  UNL1        0.1112
     15 C          -3.7274   -1.8441    0.5723 C.ar    1  UNL1        0.0489
     16 C          -5.1008   -2.0790    0.6276 C.ar    1  UNL1       -0.0140
     17 C          -5.6530   -0.8892    0.2011 C.ar    1  UNL1        0.0932
     18 O          -4.6845    0.0273   -0.1003 O.2     1  UNL1       -0.4622
     19 C          -3.4680   -0.5671    0.1311 C.ar    1  UNL1        0.1452
     20 C          -2.1867   -0.0270   -0.0326 C.ar    1  UNL1        0.0348
     21 C          -1.9446    1.3436   -0.5069 C.ar    1  UNL1       -0.0099
     22 C          -2.7803    2.3306   -0.8679 C.2     1  UNL1       -0.0718
     23 C           4.0532   -0.0283    0.0880 C.ar    1  UNL1        0.0428
     24 C           4.8732   -1.0758    0.4695 C.ar    1  UNL1       -0.0367
     25 C           6.2179   -0.6515    0.3469 C.ar    1  UNL1       -0.0438
     26 C           6.1930    0.6459   -0.1066 C.ar    1  UNL1        0.0022
     27 N           4.8807    1.0147   -0.2605 N.ar    1  UNL1       -0.3609
     28 H          -2.2174    4.3951   -0.6304 H       1  UNL1        0.0350
     29 H          -2.1847    3.8050   -2.3194 H       1  UNL1        0.0350
     30 H           0.2932    3.6972   -1.2858 H       1  UNL1        0.0581
     31 H           2.3895    2.1274   -0.6971 H       1  UNL1        0.0627
     32 H           1.7136   -1.2728    1.4303 H       1  UNL1        0.0362
     33 H           1.7462   -1.8656   -0.2662 H       1  UNL1        0.0362
     34 H          -5.6298   -2.9719    0.9293 H       1  UNL1        0.0656
     35 H          -6.6693   -0.5464    0.0614 H       1  UNL1        0.1030
     36 H          -3.8586    2.2901   -0.8746 H       1  UNL1        0.0581
     37 H           4.5368   -2.0492    0.8030 H       1  UNL1        0.0639
     38 H           7.1052   -1.2309    0.5662 H       1  UNL1        0.0633
     39 H           6.9917    1.3390   -0.3335 H       1  UNL1        0.0807
     40 H           4.5785    1.9226   -0.5832 H       1  UNL1        0.1653
@<TRIPOS>BOND
     1     1     2    1
     2     2     3    2
     3     3     4   ar
     4     4     5    1
     5     5     6    2
     6     6     7    1
     7     7     8    1
     8     8     9   ar
     9     9    10   ar
    10    10    11   ar
    11    11    12   ar
    12    12    13   ar
    13    13    14   ar
    14    14    15   ar
    15    15    16   ar
    16    16    17   ar
    17    17    18   ar
    18    18    19   ar
    19    19    20   ar
    20    20    21   ar
    21    21    22    2
    22     6    23    1
    23    23    24   ar
    24    24    25   ar
    25    25    26   ar
    26    26    27   ar
    27    22     1    1
    28    27    23   ar
    29    21     3   ar
    30     8     4   ar
    31    20     9   ar
    32    14    10   ar
    33    19    15   ar
    34     1    28    1
    35     1    29    1
    36     2    30    1
    37     5    31    1
    38     7    32    1
    39     7    33    1
    40    16    34    1
    41    17    35    1
    42    22    36    1
    43    24    37    1
    44    25    38    1
    45    26    39    1
    46    27    40    1
