@<TRIPOS>MOLECULE
*****
 51 58 0 0 0
SMALL
GASTEIGER

@<TRIPOS>ATOM
      1 C           2.0561   -3.1148    2.4504 C.3     1  UNL1       -0.0148
      2 C           0.7280   -3.0612    1.7566 C.2     1  UNL1       -0.0719
      3 C           0.6023   -1.8833    1.1278 C.ar    1  UNL1       -0.0136
      4 C          -0.5486   -1.3392    0.4381 C.ar    1  UNL1       -0.0103
      5 C          -1.8400   -1.9063    0.1232 C.2     1  UNL1       -0.0496
      6 C          -2.6107   -1.0016   -0.5150 C.2     1  UNL1       -0.0346
      7 C          -1.8225    0.2791   -0.6581 C.3     1  UNL1        0.0023
      8 C          -0.5145   -0.0632   -0.0085 C.ar    1  UNL1        0.0075
      9 C           0.6823    0.6923    0.1732 C.ar    1  UNL1        0.1409
     10 O           0.8488    1.9996   -0.1719 O.2     1  UNL1       -0.4545
     11 C           2.1339    2.3379    0.1050 C.ar    1  UNL1        0.1369
     12 C           2.6463    3.6176   -0.0882 C.ar    1  UNL1       -0.0181
     13 C           3.9947    3.8102    0.2060 C.ar    1  UNL1       -0.0505
     14 C           4.8114    2.7483    0.6111 C.ar    1  UNL1       -0.0171
     15 C           6.1803    2.9632    0.8354 C.ar    1  UNL1       -0.0540
     16 C           7.0271    1.9071    1.1710 C.ar    1  UNL1       -0.0612
     17 C           6.5205    0.6167    1.2657 C.ar    1  UNL1       -0.0611
     18 C           5.1594    0.3830    1.0580 C.ar    1  UNL1       -0.0533
     19 C           4.2706    1.4395    0.7706 C.ar    1  UNL1       -0.0065
     20 C           2.8613    1.2465    0.5837 C.ar    1  UNL1        0.0362
     21 C           1.8746    0.2232    0.7449 C.ar    1  UNL1        0.0362
     22 C           1.8341   -1.0911    1.3140 C.ar    1  UNL1       -0.0099
     23 C           2.6544   -1.7748    2.1237 C.2     1  UNL1       -0.0718
     24 C          -3.9774   -1.2163   -0.9894 C.ar    1  UNL1       -0.0124
     25 C          -4.6876   -2.4459   -0.8418 C.ar    1  UNL1       -0.0537
     26 C          -6.0313   -2.6935   -1.2957 C.ar    1  UNL1       -0.0606
     27 C          -6.8281   -1.7388   -1.9534 C.ar    1  UNL1       -0.0526
     28 C          -6.1352   -0.5464   -2.0952 C.ar    1  UNL1       -0.0000
     29 C          -6.6405    0.5770   -2.6955 C.ar    1  UNL1        0.0094
     30 N          -5.6550    1.5324   -2.6360 N.ar    1  UNL1       -0.3659
     31 C          -4.5346    1.0258   -2.0057 C.ar    1  UNL1        0.0100
     32 C          -4.7946   -0.2782   -1.6499 C.ar    1  UNL1        0.0068
     33 H           2.6752   -3.9292    2.0631 H       1  UNL1        0.0350
     34 H           1.9273   -3.2312    3.5307 H       1  UNL1        0.0350
     35 H          -0.0217   -3.8346    1.8185 H       1  UNL1        0.0581
     36 H          -2.1016   -2.9192    0.3853 H       1  UNL1        0.0627
     37 H          -1.6615    0.5379   -1.7096 H       1  UNL1        0.0363
     38 H          -2.2987    1.1073   -0.1234 H       1  UNL1        0.0363
     39 H           2.0176    4.4243   -0.4457 H       1  UNL1        0.0655
     40 H           4.4137    4.8063    0.0754 H       1  UNL1        0.0625
     41 H           6.6058    3.9595    0.7338 H       1  UNL1        0.0624
     42 H           8.0863    2.0901    1.3319 H       1  UNL1        0.0618
     43 H           7.1857   -0.2141    1.4866 H       1  UNL1        0.0618
     44 H           4.8157   -0.6428    1.0674 H       1  UNL1        0.0624
     45 H           3.5838   -1.4362    2.5476 H       1  UNL1        0.0581
     46 H          -4.1955   -3.2839   -0.3487 H       1  UNL1        0.0624
     47 H          -6.4532   -3.6828   -1.1168 H       1  UNL1        0.0618
     48 H          -7.8358   -1.9303   -2.2918 H       1  UNL1        0.0624
     49 H          -7.5954    0.7912   -3.1558 H       1  UNL1        0.0813
     50 H          -5.7354    2.4727   -3.0006 H       1  UNL1        0.1648
     51 H          -3.6777    1.6701   -1.8882 H       1  UNL1        0.0813
@<TRIPOS>BOND
     1     1     2    1
     2     2     3    2
     3     3     4   ar
     4     4     5    1
     5     5     6    2
     6     6     7    1
     7     7     8    1
     8     8     9   ar
     9     9    10   ar
    10    10    11   ar
    11    11    12   ar
    12    12    13   ar
    13    13    14   ar
    14    14    15   ar
    15    15    16   ar
    16    16    17   ar
    17    17    18   ar
    18    18    19   ar
    19    19    20   ar
    20    20    21   ar
    21    21    22   ar
    22    22    23    2
    23     6    24    1
    24    24    25   ar
    25    25    26   ar
    26    26    27   ar
    27    27    28   ar
    28    28    29   ar
    29    29    30   ar
    30    30    31   ar
    31    31    32   ar
    32    23     1    1
    33    32    24   ar
    34    22     3   ar
    35    32    28   ar
    36     8     4   ar
    37    21     9   ar
    38    20    11   ar
    39    19    14   ar
    40     1    33    1
    41     1    34    1
    42     2    35    1
    43     5    36    1
    44     7    37    1
    45     7    38    1
    46    12    39    1
    47    13    40    1
    48    15    41    1
    49    16    42    1
    50    17    43    1
    51    18    44    1
    52    23    45    1
    53    25    46    1
    54    26    47    1
    55    27    48    1
    56    29    49    1
    57    30    50    1
    58    31    51    1
