@<TRIPOS>MOLECULE
*****
 37 42 0 0 0
SMALL
GASTEIGER

@<TRIPOS>ATOM
      1 C          -2.6821   -3.2158    1.2411 C.3     1  UNL1       -0.0148
      2 C          -1.2316   -2.8370    1.0948 C.2     1  UNL1       -0.0719
      3 C          -1.1417   -1.5809    0.6333 C.ar    1  UNL1       -0.0135
      4 C           0.0270   -0.7716    0.3304 C.ar    1  UNL1       -0.0103
      5 C           1.4399   -1.0632    0.4304 C.2     1  UNL1       -0.0499
      6 C           2.1588    0.0029    0.0355 C.2     1  UNL1       -0.0389
      7 C           1.2183    1.1177   -0.3691 C.3     1  UNL1        0.0019
      8 C          -0.1269    0.4964   -0.1344 C.ar    1  UNL1        0.0075
      9 C          -1.4531    1.0039   -0.3141 C.ar    1  UNL1        0.1414
     10 O          -1.7849    2.2545   -0.7715 O.2     1  UNL1       -0.4539
     11 C          -3.1526    2.2930   -0.7789 C.ar    1  UNL1        0.1433
     12 C          -4.0751    3.2935   -1.1416 C.ar    1  UNL1       -0.0117
     13 C          -5.3528    2.8047   -0.9558 C.ar    1  UNL1       -0.0201
     14 S          -5.4127    1.1816   -0.3597 S.2     1  UNL1       -0.0928
     15 C          -3.6827    1.1193   -0.3454 C.ar    1  UNL1        0.0656
     16 C          -2.6043    0.2738   -0.0403 C.ar    1  UNL1        0.0422
     17 C          -2.4985   -1.0490    0.4447 C.ar    1  UNL1       -0.0094
     18 C          -3.4010   -1.9741    0.7888 C.2     1  UNL1       -0.0718
     19 C           3.5875    0.1167   -0.0135 C.2     1  UNL1       -0.0401
     20 C           4.3076    1.1810   -0.4079 C.2     1  UNL1       -0.0583
     21 C           5.7137    0.8857   -0.3064 C.2     1  UNL1       -0.0651
     22 C           5.8746   -0.3630    0.1513 C.2     1  UNL1       -0.0797
     23 C           4.5314   -0.9918    0.3889 C.3     1  UNL1       -0.0089
     24 H          -2.9309   -4.0683    0.6022 H       1  UNL1        0.0350
     25 H          -2.9226   -3.4517    2.2819 H       1  UNL1        0.0350
     26 H          -0.4063   -3.4906    1.3307 H       1  UNL1        0.0581
     27 H           1.8250   -2.0101    0.7761 H       1  UNL1        0.0627
     28 H           1.3460    1.3856   -1.4233 H       1  UNL1        0.0363
     29 H           1.3543    2.0036    0.2602 H       1  UNL1        0.0363
     30 H          -3.8296    4.2813   -1.5054 H       1  UNL1        0.0660
     31 H          -6.2849    3.3215   -1.1409 H       1  UNL1        0.0695
     32 H          -4.4738   -1.8651    0.7541 H       1  UNL1        0.0581
     33 H           3.9277    2.1302   -0.7546 H       1  UNL1        0.0620
     34 H           6.4999    1.5788   -0.5649 H       1  UNL1        0.0615
     35 H           6.8200   -0.8532    0.3266 H       1  UNL1        0.0575
     36 H           4.4041   -1.8791   -0.2395 H       1  UNL1        0.0356
     37 H           4.4125   -1.2611    1.4434 H       1  UNL1        0.0356
@<TRIPOS>BOND
     1     1     2    1
     2     2     3    2
     3     3     4   ar
     4     4     5    1
     5     5     6    2
     6     6     7    1
     7     7     8    1
     8     8     9   ar
     9     9    10   ar
    10    10    11   ar
    11    11    12   ar
    12    12    13   ar
    13    13    14   ar
    14    14    15   ar
    15    15    16   ar
    16    16    17   ar
    17    17    18    2
    18     6    19    1
    19    19    20    2
    20    20    21    1
    21    21    22    2
    22    22    23    1
    23    18     1    1
    24    23    19    1
    25    17     3   ar
    26     8     4   ar
    27    16     9   ar
    28    15    11   ar
    29     1    24    1
    30     1    25    1
    31     2    26    1
    32     5    27    1
    33     7    28    1
    34     7    29    1
    35    12    30    1
    36    13    31    1
    37    18    32    1
    38    20    33    1
    39    21    34    1
    40    22    35    1
    41    23    36    1
    42    23    37    1
