@<TRIPOS>MOLECULE
*****
 47 54 0 0 0
SMALL
GASTEIGER

@<TRIPOS>ATOM
      1 SI          1.4089    3.6044    2.3440 Si      1  UNL1        0.0000
      2 C           0.3264    2.3363    1.5207 C.2     1  UNL1        0.0000
      3 C           1.0544    1.3971    0.8807 C.ar    1  UNL1        0.0000
      4 C           0.4910    0.2689    0.1389 C.ar    1  UNL1        0.0000
      5 C           1.3274   -0.6150   -0.4466 C.ar    1  UNL1        0.0000
      6 C           2.7873   -0.4599   -0.3735 C.ar    1  UNL1        0.0000
      7 C           3.7000   -1.3466   -0.9766 C.ar    1  UNL1        0.0000
      8 C           3.3693   -2.4659   -1.7067 C.ar    1  UNL1        0.0000
      9 S           4.7622   -3.2958   -2.2834 S.2     1  UNL1        0.0000
     10 C           5.8277   -2.1619   -1.5583 C.ar    1  UNL1        0.0000
     11 C           5.1328   -1.1797   -0.8969 C.ar    1  UNL1        0.0000
     12 C           5.7784   -0.1424   -0.2274 C.ar    1  UNL1        0.0000
     13 C           4.8650    0.7496    0.3792 C.ar    1  UNL1        0.0000
     14 C           3.4340    0.6148    0.3205 C.ar    1  UNL1        0.0000
     15 C           2.5249    1.5887    0.9812 C.ar    1  UNL1        0.0000
     16 C           2.8959    2.6729    1.6953 C.2     1  UNL1        0.0000
     17 C          -0.9420    0.0056    0.0058 C.ar    1  UNL1        0.0000
     18 C          -1.6882   -0.8477    0.8485 C.ar    1  UNL1        0.0000
     19 C          -3.1129   -1.0836    0.6992 C.ar    1  UNL1        0.0000
     20 C          -3.8290   -1.9616    1.5805 C.ar    1  UNL1        0.0000
     21 N          -3.3126   -2.6542    2.6133 N.ar    1  UNL1        0.0000
     22 S          -4.5598   -3.5061    3.2958 S.2     1  UNL1        0.0000
     23 N          -5.8222   -3.0467    2.3233 N.ar    1  UNL1        0.0000
     24 C          -5.3155   -2.1990    1.4144 C.ar    1  UNL1        0.0000
     25 C          -6.0596   -1.5689    0.3884 C.ar    1  UNL1        0.0000
     26 C          -5.3475   -0.7142   -0.4646 C.ar    1  UNL1        0.0000
     27 C          -3.9435   -0.4795   -0.3206 C.ar    1  UNL1        0.0000
     28 C          -3.1520    0.3666   -1.1355 C.ar    1  UNL1        0.0000
     29 C          -3.5704    1.1179   -2.2083 C.ar    1  UNL1        0.0000
     30 N          -2.4676    1.7845   -2.6999 N.ar    1  UNL1        0.0000
     31 C          -1.3518    1.4704   -1.9576 C.ar    1  UNL1        0.0000
     32 C          -1.7455    0.5911   -0.9778 C.ar    1  UNL1        0.0000
     33 H           1.3240    3.5651    3.8238 H       1  UNL1        0.0000
     34 H           1.2836    4.9504    1.7338 H       1  UNL1        0.0000
     35 H          -0.7489    2.3980    1.5813 H       1  UNL1        0.0000
     36 H           0.9279   -1.4619   -0.9931 H       1  UNL1        0.0000
     37 H           2.3953   -2.8655   -1.9486 H       1  UNL1        0.0000
     38 H           6.8970   -2.2851   -1.6615 H       1  UNL1        0.0000
     39 H           6.8505   -0.0113   -0.1628 H       1  UNL1        0.0000
     40 H           5.2952    1.5888    0.9235 H       1  UNL1        0.0000
     41 H           3.8893    3.0258    1.9141 H       1  UNL1        0.0000
     42 H          -1.1629   -1.3550    1.6599 H       1  UNL1        0.0000
     43 H          -7.1229   -1.7428    0.2745 H       1  UNL1        0.0000
     44 H          -5.8927   -0.2146   -1.2638 H       1  UNL1        0.0000
     45 H          -4.5359    1.2506   -2.6762 H       1  UNL1        0.0000
     46 H          -2.4755    2.4141   -3.4921 H       1  UNL1        0.0000
     47 H          -0.3895    1.9031   -2.1982 H       1  UNL1        0.0000
@<TRIPOS>BOND
     1     1     2    1
     2     2     3    2
     3     3     4   ar
     4     4     5   ar
     5     5     6   ar
     6     6     7   ar
     7     7     8   ar
     8     8     9   ar
     9     9    10   ar
    10    10    11   ar
    11    11    12   ar
    12    12    13   ar
    13    13    14   ar
    14    14    15   ar
    15    15    16    2
    16     4    17    1
    17    17    18   ar
    18    18    19   ar
    19    19    20   ar
    20    20    21   ar
    21    21    22   ar
    22    22    23   ar
    23    23    24   ar
    24    24    25   ar
    25    25    26   ar
    26    26    27   ar
    27    27    28   ar
    28    28    29   ar
    29    29    30   ar
    30    30    31   ar
    31    31    32   ar
    32    16     1    1
    33    32    17   ar
    34    15     3   ar
    35    27    19   ar
    36    32    28   ar
    37    14     6   ar
    38    24    20   ar
    39    11     7   ar
    40     1    33    1
    41     1    34    1
    42     2    35    1
    43     5    36    1
    44     8    37    1
    45    10    38    1
    46    12    39    1
    47    13    40    1
    48    16    41    1
    49    18    42    1
    50    25    43    1
    51    26    44    1
    52    29    45    1
    53    30    46    1
    54    31    47    1
