@<TRIPOS>MOLECULE
*****
 36 41 0 0 0
SMALL
GASTEIGER

@<TRIPOS>ATOM
      1 C           2.2460   -3.5398    0.0744 C.3     1  UNL1       -0.0148
      2 C           0.8308   -3.0403   -0.0106 C.2     1  UNL1       -0.0720
      3 C           0.8281   -1.6994    0.0188 C.ar    1  UNL1       -0.0137
      4 C          -0.2841   -0.7722   -0.0362 C.ar    1  UNL1       -0.0127
      5 C          -1.7078   -1.0030   -0.1379 C.2     1  UNL1       -0.0483
      6 C          -2.3758    0.1663   -0.1575 C.2     1  UNL1       -0.0191
      7 C          -1.3645    1.2939   -0.0639 C.3     1  UNL1        0.0012
      8 C          -0.0524    0.5642    0.0090 C.ar    1  UNL1       -0.0209
      9 C           1.3045    1.0234    0.1112 C.ar    1  UNL1        0.0256
     10 S           1.7095    2.6828    0.1753 S.2     1  UNL1       -0.0874
     11 C           3.4090    2.2829    0.2817 C.ar    1  UNL1        0.0276
     12 C           4.6089    3.0519    0.3800 C.ar    1  UNL1       -0.0403
     13 C           5.7107    2.2317    0.4366 C.ar    1  UNL1       -0.0227
     14 S           5.3390    0.5620    0.3746 S.2     1  UNL1       -0.0955
     15 C           3.6327    0.9285    0.2670 C.ar    1  UNL1        0.0347
     16 C           2.4185    0.1920    0.1684 C.ar    1  UNL1        0.0112
     17 C           2.2122   -1.2183    0.1233 C.ar    1  UNL1       -0.0119
     18 C           3.0434   -2.2678    0.1566 C.2     1  UNL1       -0.0719
     19 C          -3.7894    0.2106   -0.2525 C.ar    1  UNL1        0.0428
     20 C          -4.7879   -0.7430   -0.3412 C.ar    1  UNL1       -0.0367
     21 C          -6.0325   -0.0712   -0.4110 C.ar    1  UNL1       -0.0438
     22 C          -5.7692    1.2773   -0.3637 C.ar    1  UNL1        0.0022
     23 N          -4.4110    1.4389   -0.2679 N.ar    1  UNL1       -0.3609
     24 H           2.3930   -4.1540    0.9677 H       1  UNL1        0.0350
     25 H           2.5140   -4.1146   -0.8170 H       1  UNL1        0.0350
     26 H          -0.0359   -3.6787   -0.0834 H       1  UNL1        0.0581
     27 H          -2.1370   -1.9921   -0.1889 H       1  UNL1        0.0627
     28 H          -1.5324    1.8943    0.8364 H       1  UNL1        0.0363
     29 H          -1.4111    1.9338   -0.9514 H       1  UNL1        0.0363
     30 H           4.6504    4.1332    0.4067 H       1  UNL1        0.0634
     31 H           6.7462    2.5350    0.5134 H       1  UNL1        0.0694
     32 H           4.1185   -2.2371    0.2302 H       1  UNL1        0.0581
     33 H          -4.6415   -1.8151   -0.3547 H       1  UNL1        0.0639
     34 H          -7.0122   -0.5244   -0.4875 H       1  UNL1        0.0633
     35 H          -6.4278    2.1350   -0.3898 H       1  UNL1        0.0807
     36 H          -3.9431    2.3335   -0.2166 H       1  UNL1        0.1653
@<TRIPOS>BOND
     1     1     2    1
     2     2     3    2
     3     3     4   ar
     4     4     5    1
     5     5     6    2
     6     6     7    1
     7     7     8    1
     8     8     9   ar
     9     9    10   ar
    10    10    11   ar
    11    11    12   ar
    12    12    13   ar
    13    13    14   ar
    14    14    15   ar
    15    15    16   ar
    16    16    17   ar
    17    17    18    2
    18     6    19    1
    19    19    20   ar
    20    20    21   ar
    21    21    22   ar
    22    22    23   ar
    23    18     1    1
    24    23    19   ar
    25    17     3   ar
    26     8     4   ar
    27    16     9   ar
    28    15    11   ar
    29     1    24    1
    30     1    25    1
    31     2    26    1
    32     5    27    1
    33     7    28    1
    34     7    29    1
    35    12    30    1
    36    13    31    1
    37    18    32    1
    38    20    33    1
    39    21    34    1
    40    22    35    1
    41    23    36    1
