@<TRIPOS>MOLECULE
*****
 48 55 0 0 0
SMALL
GASTEIGER

@<TRIPOS>ATOM
      1 C           1.9071    4.0188    0.2381 C.3     1  UNL1        0.0000
      2 C           3.2222    3.3191    0.1625 C.2     1  UNL1        0.0000
      3 C           3.0154    1.9967    0.0760 C.ar    1  UNL1        0.0000
      4 C           3.9814    0.9384   -0.0171 C.ar    1  UNL1        0.0000
      5 C           5.4398    1.0844   -0.0390 C.2     1  UNL1        0.0000
      6 C           6.1375   -0.0579   -0.1331 C.2     1  UNL1        0.0000
      7 SI          4.9779   -1.5041   -0.2073 Si      1  UNL1        0.0000
      8 C           3.4987   -0.3359   -0.0937 C.ar    1  UNL1        0.0000
      9 C           2.0477   -0.7130   -0.0884 C.ar    1  UNL1        0.0000
     10 C           1.0925    0.3043    0.0002 C.ar    1  UNL1        0.0000
     11 C          -0.3543   -0.0330    0.0060 C.ar    1  UNL1        0.0000
     12 C          -1.5168    0.9191    0.0930 C.3     1  UNL1        0.0000
     13 C          -2.7277    0.0093    0.0545 C.2     1  UNL1        0.0000
     14 C          -2.2931   -1.2579   -0.0397 C.2     1  UNL1        0.0000
     15 C          -0.8507   -1.2835   -0.0693 C.ar    1  UNL1        0.0000
     16 C           0.0708   -2.3665   -0.1605 C.ar    1  UNL1        0.0000
     17 C          -0.1907   -3.6778   -0.2431 C.2     1  UNL1        0.0000
     18 C           1.0958   -4.4238   -0.3176 C.3     1  UNL1        0.0000
     19 C           2.1095   -3.3153   -0.2628 C.2     1  UNL1        0.0000
     20 C           1.5147   -2.1097   -0.1714 C.ar    1  UNL1        0.0000
     21 C          -4.0961    0.5279    0.1159 C.ar    1  UNL1        0.0000
     22 C          -4.4101    1.8946    0.2117 C.ar    1  UNL1        0.0000
     23 N          -5.6476    2.4902    0.2756 N.ar    1  UNL1        0.0000
     24 C          -6.7794    1.7343    0.2488 C.ar    1  UNL1        0.0000
     25 C          -6.6408    0.3370    0.1547 C.ar    1  UNL1        0.0000
     26 N          -7.6433   -0.5556    0.1165 N.ar    1  UNL1        0.0000
     27 S          -6.9345   -2.0489    0.0048 S.2     1  UNL1        0.0000
     28 N          -5.3334   -1.6300   -0.0000 N.ar    1  UNL1        0.0000
     29 C          -5.2626   -0.2877    0.0861 C.ar    1  UNL1        0.0000
     30 C           1.5868    1.6991    0.0854 C.ar    1  UNL1        0.0000
     31 C           0.9369    2.8749    0.1800 C.2     1  UNL1        0.0000
     32 H           1.8058    4.5738    1.1753 H       1  UNL1        0.0000
     33 H           1.7683    4.6964   -0.6093 H       1  UNL1        0.0000
     34 H           4.1769    3.8206    0.1769 H       1  UNL1        0.0000
     35 H           5.9065    2.0597    0.0178 H       1  UNL1        0.0000
     36 H           7.2099   -0.1645   -0.1641 H       1  UNL1        0.0000
     37 H           5.1195   -2.3855    0.9794 H       1  UNL1        0.0000
     38 H           5.0641   -2.2140   -1.5087 H       1  UNL1        0.0000
     39 H          -1.4972    1.4761    1.0359 H       1  UNL1        0.0000
     40 H          -1.5317    1.5986   -0.7660 H       1  UNL1        0.0000
     41 H          -2.8881   -2.1564   -0.0893 H       1  UNL1        0.0000
     42 H          -1.1671   -4.1364   -0.2545 H       1  UNL1        0.0000
     43 H           1.1769   -4.9845   -1.2533 H       1  UNL1        0.0000
     44 H           1.2110   -5.1039    0.5314 H       1  UNL1        0.0000
     45 H           3.1537   -3.5578   -0.2981 H       1  UNL1        0.0000
     46 H          -3.6082    2.6327    0.2439 H       1  UNL1        0.0000
     47 H          -7.7320    2.2442    0.3013 H       1  UNL1        0.0000
     48 H          -0.1216    3.0532    0.2147 H       1  UNL1        0.0000
@<TRIPOS>BOND
     1     1     2    1
     2     2     3    2
     3     3     4   ar
     4     4     5    1
     5     5     6    2
     6     6     7    1
     7     7     8    1
     8     8     9   ar
     9     9    10   ar
    10    10    11   ar
    11    11    12    1
    12    12    13    1
    13    13    14    2
    14    14    15    1
    15    15    16   ar
    16    16    17    2
    17    17    18    1
    18    18    19    1
    19    19    20    2
    20    13    21    1
    21    21    22   ar
    22    22    23   ar
    23    23    24   ar
    24    24    25   ar
    25    25    26   ar
    26    26    27   ar
    27    27    28   ar
    28    28    29   ar
    29    10    30   ar
    30    30    31    2
    31    31     1    1
    32    30     3   ar
    33     8     4   ar
    34    20     9   ar
    35    29    21   ar
    36    15    11   ar
    37    20    16   ar
    38    29    25   ar
    39     1    32    1
    40     1    33    1
    41     2    34    1
    42     5    35    1
    43     6    36    1
    44     7    37    1
    45     7    38    1
    46    12    39    1
    47    12    40    1
    48    14    41    1
    49    17    42    1
    50    18    43    1
    51    18    44    1
    52    19    45    1
    53    22    46    1
    54    24    47    1
    55    31    48    1
