@<TRIPOS>MOLECULE
*****
 41 47 0 0 0
SMALL
GASTEIGER

@<TRIPOS>ATOM
      1 C          -0.9967    3.7964   -0.1339 C.3     1  UNL1        0.0000
      2 C          -2.3645    3.1977    0.0023 C.2     1  UNL1        0.0000
      3 C          -2.2681    1.8602    0.0688 C.ar    1  UNL1        0.0000
      4 C          -3.3216    0.8734    0.2027 C.ar    1  UNL1        0.0000
      5 C          -4.7600    1.1504    0.2961 C.2     1  UNL1        0.0000
      6 C          -5.5555    0.0750    0.4154 C.2     1  UNL1        0.0000
      7 SI         -4.5395   -1.4777    0.4243 Si      1  UNL1        0.0000
      8 C          -2.9813   -0.4511    0.2500 C.ar    1  UNL1        0.0000
      9 C          -1.5738   -0.9163    0.1694 C.ar    1  UNL1        0.0000
     10 C          -1.0840   -2.2410    0.2054 C.ar    1  UNL1        0.0000
     11 C          -1.7497   -3.4445    0.3220 C.ar    1  UNL1        0.0000
     12 O          -0.8763   -4.5073    0.3146 O.2     1  UNL1        0.0000
     13 C           0.3878   -4.0028    0.1913 C.ar    1  UNL1        0.0000
     14 C           0.2674   -2.6535    0.1260 C.ar    1  UNL1        0.0000
     15 C           1.2701   -1.6748   -0.0036 C.ar    1  UNL1        0.0000
     16 C           2.6521   -1.7653   -0.1030 C.ar    1  UNL1        0.0000
     17 C           3.0679   -0.4449   -0.2072 C.ar    1  UNL1        0.0000
     18 O           1.9808    0.4016   -0.1717 O.2     1  UNL1        0.0000
     19 C           0.8492   -0.3655   -0.0440 C.ar    1  UNL1        0.0000
     20 C          -0.5006    0.0505    0.0350 C.ar    1  UNL1        0.0000
     21 C          -0.8631    1.4741   -0.0161 C.ar    1  UNL1        0.0000
     22 C          -0.1147    2.5840   -0.1337 C.2     1  UNL1        0.0000
     23 C           4.3779    0.1777   -0.3404 C.ar    1  UNL1        0.0000
     24 N           4.4320    1.5093   -0.4179 N.ar    1  UNL1        0.0000
     25 C           5.6629    1.9932   -0.5375 C.ar    1  UNL1        0.0000
     26 N           6.7850    1.2775   -0.5828 N.ar    1  UNL1        0.0000
     27 C           6.5953   -0.0373   -0.4960 C.ar    1  UNL1        0.0000
     28 N           5.4238   -0.6539   -0.3736 N.ar    1  UNL1        0.0000
     29 H          -0.9013    4.3535   -1.0704 H       1  UNL1        0.0000
     30 H          -0.7668    4.4517    0.7112 H       1  UNL1        0.0000
     31 H          -3.2731    3.7776    0.0390 H       1  UNL1        0.0000
     32 H          -5.1368    2.1652    0.2686 H       1  UNL1        0.0000
     33 H          -6.6307    0.0702    0.4969 H       1  UNL1        0.0000
     34 H          -4.7970   -2.3335   -0.7603 H       1  UNL1        0.0000
     35 H          -4.6097   -2.1968    1.7203 H       1  UNL1        0.0000
     36 H          -2.7774   -3.7555    0.4167 H       1  UNL1        0.0000
     37 H           1.1929   -4.7226    0.1702 H       1  UNL1        0.0000
     38 H           3.2927   -2.6352   -0.1035 H       1  UNL1        0.0000
     39 H           0.9602    2.6329   -0.2176 H       1  UNL1        0.0000
     40 H           5.7635    3.0712   -0.6045 H       1  UNL1        0.0000
     41 H           7.4806   -0.6637   -0.5284 H       1  UNL1        0.0000
@<TRIPOS>BOND
     1     1     2    1
     2     2     3    2
     3     3     4   ar
     4     4     5    1
     5     5     6    2
     6     6     7    1
     7     7     8    1
     8     8     9   ar
     9     9    10   ar
    10    10    11   ar
    11    11    12   ar
    12    12    13   ar
    13    13    14   ar
    14    14    15   ar
    15    15    16   ar
    16    16    17   ar
    17    17    18   ar
    18    18    19   ar
    19    19    20   ar
    20    20    21   ar
    21    21    22    2
    22    17    23    1
    23    23    24   ar
    24    24    25   ar
    25    25    26   ar
    26    26    27   ar
    27    27    28   ar
    28    22     1    1
    29    28    23   ar
    30    21     3   ar
    31     8     4   ar
    32    20     9   ar
    33    14    10   ar
    34    19    15   ar
    35     1    29    1
    36     1    30    1
    37     2    31    1
    38     5    32    1
    39     6    33    1
    40     7    34    1
    41     7    35    1
    42    11    36    1
    43    13    37    1
    44    16    38    1
    45    22    39    1
    46    25    40    1
    47    27    41    1
