@<TRIPOS>MOLECULE
*****
 43 50 0 0 0
SMALL
GASTEIGER

@<TRIPOS>ATOM
      1 C          -2.8711   -3.3137   -1.1497 C.3     1  UNL1        0.0000
      2 C          -3.9337   -2.3545   -0.7197 C.2     1  UNL1        0.0000
      3 C          -3.3680   -1.1885   -0.3706 C.ar    1  UNL1        0.0000
      4 C          -4.0225    0.0586   -0.0597 C.ar    1  UNL1        0.0000
      5 C          -5.4490    0.2741    0.1919 C.2     1  UNL1        0.0000
      6 C          -5.8081    1.5398    0.4639 C.2     1  UNL1        0.0000
      7 SI         -4.3202    2.6710    0.4199 Si      1  UNL1        0.0000
      8 C          -3.2477    1.1762   -0.0012 C.ar    1  UNL1        0.0000
      9 C          -1.7671    1.1419   -0.1473 C.ar    1  UNL1        0.0000
     10 C          -0.9726    2.3228   -0.2220 C.ar    1  UNL1        0.0000
     11 N          -1.4077    3.5948   -0.2825 N.ar    1  UNL1        0.0000
     12 S          -0.0905    4.5793   -0.4043 S.2     1  UNL1        0.0000
     13 N           1.1166    3.4555   -0.3649 N.ar    1  UNL1        0.0000
     14 C           0.5352    2.2456   -0.2547 C.ar    1  UNL1        0.0000
     15 C           1.2293    0.9969   -0.1416 C.ar    1  UNL1        0.0000
     16 C           2.6600    1.0157   -0.1130 C.ar    1  UNL1        0.0000
     17 C           3.4699   -0.1212    0.0714 C.ar    1  UNL1        0.0000
     18 C           4.9265   -0.0705    0.0743 C.ar    1  UNL1        0.0000
     19 N           5.4925    1.0087    0.6273 N.ar    1  UNL1        0.0000
     20 C           6.8224    1.0238    0.5757 C.ar    1  UNL1        0.0000
     21 N           7.5959    0.0934    0.0239 N.ar    1  UNL1        0.0000
     22 C           6.9194   -0.9189   -0.5120 C.ar    1  UNL1        0.0000
     23 N           5.5964   -1.0522   -0.5328 N.ar    1  UNL1        0.0000
     24 C           2.7466   -1.3132    0.3252 C.ar    1  UNL1        0.0000
     25 N           3.2771   -2.5063    0.6507 N.ar    1  UNL1        0.0000
     26 S           2.0331   -3.5459    0.9361 S.2     1  UNL1        0.0000
     27 N           0.7509   -2.5507    0.6609 N.ar    1  UNL1        0.0000
     28 C           1.2179   -1.3465    0.2853 C.ar    1  UNL1        0.0000
     29 C           0.4101   -0.1792   -0.0443 C.ar    1  UNL1        0.0000
     30 C          -1.0398   -0.1075   -0.1934 C.ar    1  UNL1        0.0000
     31 C          -1.9110   -1.2872   -0.4763 C.ar    1  UNL1        0.0000
     32 C          -1.6269   -2.4895   -1.0089 C.2     1  UNL1        0.0000
     33 H          -2.8404   -4.1955   -0.5035 H       1  UNL1        0.0000
     34 H          -3.0198   -3.6218   -2.1888 H       1  UNL1        0.0000
     35 H          -4.9906   -2.5633   -0.7732 H       1  UNL1        0.0000
     36 H          -6.1524   -0.5486    0.1654 H       1  UNL1        0.0000
     37 H          -6.7998    1.9035    0.6799 H       1  UNL1        0.0000
     38 H          -4.0364    3.2320    1.7655 H       1  UNL1        0.0000
     39 H          -4.4546    3.6493   -0.6889 H       1  UNL1        0.0000
     40 H           3.1710    1.9755   -0.2384 H       1  UNL1        0.0000
     41 H           7.3220    1.8758    1.0243 H       1  UNL1        0.0000
     42 H           7.4996   -1.7078   -0.9784 H       1  UNL1        0.0000
     43 H          -0.6627   -2.8515   -1.3260 H       1  UNL1        0.0000
@<TRIPOS>BOND
     1     1     2    1
     2     2     3    2
     3     3     4   ar
     4     4     5    1
     5     5     6    2
     6     6     7    1
     7     7     8    1
     8     8     9   ar
     9     9    10   ar
    10    10    11   ar
    11    11    12   ar
    12    12    13   ar
    13    13    14   ar
    14    14    15   ar
    15    15    16   ar
    16    16    17   ar
    17    17    18    1
    18    18    19   ar
    19    19    20   ar
    20    20    21   ar
    21    21    22   ar
    22    22    23   ar
    23    17    24   ar
    24    24    25   ar
    25    25    26   ar
    26    26    27   ar
    27    27    28   ar
    28    28    29   ar
    29    29    30   ar
    30    30    31   ar
    31    31    32    2
    32    32     1    1
    33    31     3   ar
    34     8     4   ar
    35    30     9   ar
    36    14    10   ar
    37    29    15   ar
    38    23    18   ar
    39    28    24   ar
    40     1    33    1
    41     1    34    1
    42     2    35    1
    43     5    36    1
    44     6    37    1
    45     7    38    1
    46     7    39    1
    47    16    40    1
    48    20    41    1
    49    22    42    1
    50    32    43    1
