@<TRIPOS>MOLECULE
*****
 41 46 0 0 0
SMALL
GASTEIGER

@<TRIPOS>ATOM
      1 C          -1.9402   -2.7990   -1.9029 C.3     1  UNL1        0.0000
      2 C          -3.2009   -2.2156   -1.3526 C.2     1  UNL1        0.0000
      3 C          -2.9088   -1.1402   -0.6051 C.ar    1  UNL1        0.0000
      4 C          -3.8156   -0.2729    0.1139 C.ar    1  UNL1        0.0000
      5 C          -5.2765   -0.3795    0.1859 C.2     1  UNL1        0.0000
      6 C          -5.8958    0.5569    0.9255 C.2     1  UNL1        0.0000
      7 SI         -4.6556    1.7423    1.6551 Si      1  UNL1        0.0000
      8 C          -3.2838    0.7686    0.8118 C.ar    1  UNL1        0.0000
      9 C          -1.8253    1.0672    0.8790 C.ar    1  UNL1        0.0000
     10 C          -1.3255    2.1521    1.6113 C.ar    1  UNL1        0.0000
     11 C           0.0450    2.4262    1.6703 C.ar    1  UNL1        0.0000
     12 C           0.9517    1.6024    0.9841 C.ar    1  UNL1        0.0000
     13 C           2.3695    1.6223    0.8551 C.ar    1  UNL1        0.0000
     14 C           2.7450    0.5640    0.0538 C.ar    1  UNL1        0.0000
     15 N           1.5803   -0.0820   -0.2946 N.ar    1  UNL1        0.0000
     16 C           0.4676    0.5162    0.2491 C.ar    1  UNL1        0.0000
     17 C          -0.9104    0.2185    0.1734 C.ar    1  UNL1        0.0000
     18 C          -1.4584   -0.9209   -0.5943 C.ar    1  UNL1        0.0000
     19 C          -0.8903   -1.8811   -1.3465 C.2     1  UNL1        0.0000
     20 C           4.0379    0.0860   -0.4214 C.ar    1  UNL1        0.0000
     21 C           5.2376    0.7059   -0.0955 C.ar    1  UNL1        0.0000
     22 C           6.4209    0.1717   -0.6000 C.ar    1  UNL1        0.0000
     23 C           6.3690   -0.9574   -1.4087 C.ar    1  UNL1        0.0000
     24 C           5.1289   -1.5100   -1.6820 C.ar    1  UNL1        0.0000
     25 N           3.9632   -1.0168   -1.2089 N.ar    1  UNL1        0.0000
     26 H          -1.9396   -2.7799   -2.9967 H       1  UNL1        0.0000
     27 H          -1.7923   -3.8244   -1.5518 H       1  UNL1        0.0000
     28 H          -4.1843   -2.6158   -1.5419 H       1  UNL1        0.0000
     29 H          -5.8044   -1.1704   -0.3315 H       1  UNL1        0.0000
     30 H          -6.9557    0.6493    1.1003 H       1  UNL1        0.0000
     31 H          -4.8051    3.1177    1.1168 H       1  UNL1        0.0000
     32 H          -4.5991    1.6590    3.1362 H       1  UNL1        0.0000
     33 H          -1.9806    2.8212    2.1607 H       1  UNL1        0.0000
     34 H           0.4038    3.2747    2.2463 H       1  UNL1        0.0000
     35 H           3.0347    2.3444    1.3089 H       1  UNL1        0.0000
     36 H           1.5935   -0.8984   -0.8844 H       1  UNL1        0.0000
     37 H           0.1505   -2.0336   -1.5633 H       1  UNL1        0.0000
     38 H           5.2643    1.5859    0.5362 H       1  UNL1        0.0000
     39 H           7.3747    0.6343   -0.3627 H       1  UNL1        0.0000
     40 H           7.2728   -1.3963   -1.8163 H       1  UNL1        0.0000
     41 H           5.0376   -2.3924   -2.3090 H       1  UNL1        0.0000
@<TRIPOS>BOND
     1     1     2    1
     2     2     3    2
     3     3     4   ar
     4     4     5    1
     5     5     6    2
     6     6     7    1
     7     7     8    1
     8     8     9   ar
     9     9    10   ar
    10    10    11   ar
    11    11    12   ar
    12    12    13   ar
    13    13    14   ar
    14    14    15   ar
    15    15    16   ar
    16    16    17   ar
    17    17    18   ar
    18    18    19    2
    19    14    20    1
    20    20    21   ar
    21    21    22   ar
    22    22    23   ar
    23    23    24   ar
    24    24    25   ar
    25    19     1    1
    26    25    20   ar
    27    18     3   ar
    28     8     4   ar
    29    17     9   ar
    30    16    12   ar
    31     1    26    1
    32     1    27    1
    33     2    28    1
    34     5    29    1
    35     6    30    1
    36     7    31    1
    37     7    32    1
    38    10    33    1
    39    11    34    1
    40    13    35    1
    41    15    36    1
    42    19    37    1
    43    21    38    1
    44    22    39    1
    45    23    40    1
    46    24    41    1
