@<TRIPOS>MOLECULE
*****
 42 47 0 0 0
SMALL
GASTEIGER

@<TRIPOS>ATOM
      1 C          -2.8700    3.5616   -0.5962 C.3     1  UNL1        0.0000
      2 C          -3.9570    2.6042   -0.2329 C.2     1  UNL1        0.0000
      3 C          -3.4289    1.3905   -0.0128 C.ar    1  UNL1        0.0000
      4 C          -4.1228    0.1509    0.2391 C.ar    1  UNL1        0.0000
      5 C          -5.5577   -0.0476    0.4576 C.2     1  UNL1        0.0000
      6 C          -5.9464   -1.3188    0.6601 C.2     1  UNL1        0.0000
      7 SI         -4.4849   -2.4742    0.5953 Si      1  UNL1        0.0000
      8 C          -3.3789   -0.9864    0.2634 C.ar    1  UNL1        0.0000
      9 C          -1.9019   -1.0087    0.1064 C.ar    1  UNL1        0.0000
     10 C          -1.1747   -2.1910    0.0891 C.ar    1  UNL1        0.0000
     11 N           0.1702   -2.2702    0.0209 N.ar    1  UNL1        0.0000
     12 C           0.8736   -1.1338    0.0285 C.ar    1  UNL1        0.0000
     13 C           2.2592   -1.2618    0.0286 C.ar    1  UNL1        0.0000
     14 C           3.1303   -0.1668    0.0882 C.ar    1  UNL1        0.0000
     15 C           2.5516    1.0966    0.1724 C.ar    1  UNL1        0.0000
     16 C           1.1597    1.2484    0.1634 C.ar    1  UNL1        0.0000
     17 C           0.2779    0.1453    0.0523 C.ar    1  UNL1        0.0000
     18 C          -1.1532    0.2009    0.0022 C.ar    1  UNL1        0.0000
     19 C          -1.9697    1.4414   -0.1626 C.ar    1  UNL1        0.0000
     20 C          -1.6499    2.6885   -0.5564 C.2     1  UNL1        0.0000
     21 C           4.5892   -0.3541    0.0889 C.2     1  UNL1        0.0000
     22 C           5.5500    0.5892    0.0960 C.2     1  UNL1        0.0000
     23 C           6.8509   -0.0292    0.0905 C.2     1  UNL1        0.0000
     24 C           6.7103   -1.3604    0.0775 C.2     1  UNL1        0.0000
     25 C           5.2512   -1.7139    0.0729 C.3     1  UNL1        0.0000
     26 H          -2.7971    4.3781    0.1279 H       1  UNL1        0.0000
     27 H          -3.0260    3.9703   -1.5990 H       1  UNL1        0.0000
     28 H          -5.0051    2.8588   -0.2187 H       1  UNL1        0.0000
     29 H          -6.2446    0.7894    0.4549 H       1  UNL1        0.0000
     30 H          -6.9509   -1.6682    0.8392 H       1  UNL1        0.0000
     31 H          -4.1979   -3.1113    1.9035 H       1  UNL1        0.0000
     32 H          -4.5361   -3.4043   -0.5591 H       1  UNL1        0.0000
     33 H          -1.6475   -3.1671    0.1290 H       1  UNL1        0.0000
     34 H           2.6556   -2.2744   -0.0093 H       1  UNL1        0.0000
     35 H           3.1622    1.9911    0.2612 H       1  UNL1        0.0000
     36 H           0.7830    2.2549    0.2974 H       1  UNL1        0.0000
     37 H          -0.6868    3.0619   -0.8583 H       1  UNL1        0.0000
     38 H           5.4200    1.6602    0.1021 H       1  UNL1        0.0000
     39 H           7.7827    0.5157    0.0959 H       1  UNL1        0.0000
     40 H           7.5147   -2.0799    0.0705 H       1  UNL1        0.0000
     41 H           4.9967   -2.2983    0.9630 H       1  UNL1        0.0000
     42 H           4.9991   -2.2775   -0.8312 H       1  UNL1        0.0000
@<TRIPOS>BOND
     1     1     2    1
     2     2     3    2
     3     3     4   ar
     4     4     5    1
     5     5     6    2
     6     6     7    1
     7     7     8    1
     8     8     9   ar
     9     9    10   ar
    10    10    11   ar
    11    11    12   ar
    12    12    13   ar
    13    13    14   ar
    14    14    15   ar
    15    15    16   ar
    16    16    17   ar
    17    17    18   ar
    18    18    19   ar
    19    19    20    2
    20    14    21    1
    21    21    22    2
    22    22    23    1
    23    23    24    2
    24    24    25    1
    25    20     1    1
    26    25    21    1
    27    19     3   ar
    28     8     4   ar
    29    18     9   ar
    30    17    12   ar
    31     1    26    1
    32     1    27    1
    33     2    28    1
    34     5    29    1
    35     6    30    1
    36     7    31    1
    37     7    32    1
    38    10    33    1
    39    13    34    1
    40    15    35    1
    41    16    36    1
    42    20    37    1
    43    22    38    1
    44    23    39    1
    45    24    40    1
    46    25    41    1
    47    25    42    1
