@<TRIPOS>MOLECULE
*****
 46 53 0 0 0
SMALL
GASTEIGER

@<TRIPOS>ATOM
      1 C          -3.8252    3.0660    0.6825 C.3     1  UNL1        0.0000
      2 C          -4.7714    1.9429    0.3938 C.2     1  UNL1        0.0000
      3 C          -4.0758    0.8121    0.2026 C.ar    1  UNL1        0.0000
      4 C          -4.5704   -0.5391    0.0771 C.ar    1  UNL1        0.0000
      5 C          -5.9516   -0.9960   -0.0750 C.2     1  UNL1        0.0000
      6 C          -6.1133   -2.3303   -0.1378 C.2     1  UNL1        0.0000
      7 SI         -4.4527   -3.2141    0.0002 Si      1  UNL1        0.0000
      8 C          -3.6528   -1.5382    0.1367 C.ar    1  UNL1        0.0000
      9 C          -2.1986   -1.3211    0.2439 C.ar    1  UNL1        0.0000
     10 N          -1.4407   -2.4332    0.3728 N.ar    1  UNL1        0.0000
     11 C          -0.0991   -2.2726    0.4034 C.ar    1  UNL1        0.0000
     12 C           0.5779   -1.0721    0.2182 C.ar    1  UNL1        0.0000
     13 C           2.0268   -1.0766    0.2155 C.ar    1  UNL1        0.0000
     14 C           2.8669    0.0356   -0.0551 C.ar    1  UNL1        0.0000
     15 C           4.3199    0.0295   -0.0605 C.ar    1  UNL1        0.0000
     16 N           4.9879    1.1440    0.3968 N.ar    1  UNL1        0.0000
     17 C           6.3557    1.2039    0.4366 C.ar    1  UNL1        0.0000
     18 C           7.2516    0.2175    0.0457 C.ar    1  UNL1        0.0000
     19 C           6.6243   -0.9458   -0.4346 C.ar    1  UNL1        0.0000
     20 N           7.2626   -2.0411   -0.8758 N.ar    1  UNL1        0.0000
     21 S           6.0898   -3.1183   -1.3383 S.2     1  UNL1        0.0000
     22 N           4.7203   -2.2510   -0.9896 N.ar    1  UNL1        0.0000
     23 C           5.1218   -1.0637   -0.4961 C.ar    1  UNL1        0.0000
     24 C           2.0632    1.1336   -0.3667 C.ar    1  UNL1        0.0000
     25 C           2.4798    2.3634   -0.8129 C.ar    1  UNL1        0.0000
     26 O           1.4010    3.1269   -1.1427 O.2     1  UNL1        0.0000
     27 C           0.2858    2.3810   -0.8968 C.ar    1  UNL1        0.0000
     28 C           0.6267    1.1696   -0.3465 C.ar    1  UNL1        0.0000
     29 C          -0.2376    0.0916    0.0173 C.ar    1  UNL1        0.0000
     30 C          -1.6576   -0.0141    0.1606 C.ar    1  UNL1        0.0000
     31 C          -2.6377    1.0913    0.2827 C.ar    1  UNL1        0.0000
     32 C          -2.4906    2.3792    0.6396 C.2     1  UNL1        0.0000
     33 H          -3.8923    3.8519   -0.0752 H       1  UNL1        0.0000
     34 H          -4.0137    3.4904    1.6731 H       1  UNL1        0.0000
     35 H          -5.8459    2.0337    0.4303 H       1  UNL1        0.0000
     36 H          -6.7723   -0.2926   -0.1327 H       1  UNL1        0.0000
     37 H          -7.0372   -2.8748   -0.2487 H       1  UNL1        0.0000
     38 H          -4.1609   -3.9414   -1.2622 H       1  UNL1        0.0000
     39 H          -4.4162   -4.0279    1.2428 H       1  UNL1        0.0000
     40 H           0.4444   -3.2040    0.5529 H       1  UNL1        0.0000
     41 H           2.5159   -2.0297    0.4357 H       1  UNL1        0.0000
     42 H           6.7376    2.1483    0.8254 H       1  UNL1        0.0000
     43 H           8.3245    0.3307    0.1028 H       1  UNL1        0.0000
     44 H           3.4420    2.8236   -0.9896 H       1  UNL1        0.0000
     45 H          -0.6377    2.8531   -1.1968 H       1  UNL1        0.0000
     46 H          -1.5749    2.8777    0.9141 H       1  UNL1        0.0000
@<TRIPOS>BOND
     1     1     2    1
     2     2     3    2
     3     3     4   ar
     4     4     5    1
     5     5     6    2
     6     6     7    1
     7     7     8    1
     8     8     9   ar
     9     9    10   ar
    10    10    11   ar
    11    11    12   ar
    12    12    13   ar
    13    13    14   ar
    14    14    15    1
    15    15    16   ar
    16    16    17   ar
    17    17    18   ar
    18    18    19   ar
    19    19    20   ar
    20    20    21   ar
    21    21    22   ar
    22    22    23   ar
    23    14    24   ar
    24    24    25   ar
    25    25    26   ar
    26    26    27   ar
    27    27    28   ar
    28    28    29   ar
    29    29    30   ar
    30    30    31   ar
    31    31    32    2
    32    32     1    1
    33    31     3   ar
    34     8     4   ar
    35    30     9   ar
    36    29    12   ar
    37    23    15   ar
    38    28    24   ar
    39    23    19   ar
    40     1    33    1
    41     1    34    1
    42     2    35    1
    43     5    36    1
    44     6    37    1
    45     7    38    1
    46     7    39    1
    47    11    40    1
    48    13    41    1
    49    17    42    1
    50    18    43    1
    51    25    44    1
    52    27    45    1
    53    32    46    1
