@<TRIPOS>MOLECULE
*****
 38 44 0 0 0
SMALL
GASTEIGER

@<TRIPOS>ATOM
      1 C          -3.4928   -2.4804   -1.9837 C.3     1  UNL1        0.0000
      2 C          -4.3638   -1.4923   -1.2515 C.2     1  UNL1        0.0000
      3 C          -3.5930   -0.6214   -0.5820 C.ar    1  UNL1        0.0000
      4 C          -3.9650    0.5105    0.2667 C.ar    1  UNL1        0.0000
      5 C          -5.3048    0.9917    0.6087 C.2     1  UNL1        0.0000
      6 C          -5.3404    2.0669    1.4199 C.2     1  UNL1        0.0000
      7 SI         -3.5938    2.6333    1.8750 Si      1  UNL1        0.0000
      8 C          -2.9675    1.2458    0.8375 C.ar    1  UNL1        0.0000
      9 C          -1.6016    0.9131    0.6078 C.ar    1  UNL1        0.0000
     10 O          -0.4847    1.5605    1.1142 O.2     1  UNL1        0.0000
     11 C           0.5832    0.8744    0.6130 C.ar    1  UNL1        0.0000
     12 C           1.9768    0.9186    0.6683 C.ar    1  UNL1        0.0000
     13 C           2.3565   -0.1534   -0.1353 C.ar    1  UNL1        0.0000
     14 O           1.2410   -0.8077   -0.6470 O.2     1  UNL1        0.0000
     15 C           0.1699   -0.1369   -0.1572 C.ar    1  UNL1        0.0000
     16 C          -1.2132   -0.1610   -0.1970 C.ar    1  UNL1        0.0000
     17 C          -2.1844   -0.9677   -0.8213 C.ar    1  UNL1        0.0000
     18 C          -2.1031   -2.0334   -1.6245 C.2     1  UNL1        0.0000
     19 C           3.6836   -0.5976   -0.4500 C.ar    1  UNL1        0.0000
     20 S           4.0262   -1.9586   -1.4765 S.2     1  UNL1        0.0000
     21 C           5.7512   -1.7899   -1.3198 C.ar    1  UNL1        0.0000
     22 C           5.9844   -0.7332   -0.5143 C.ar    1  UNL1        0.0000
     23 C           7.0570   -0.0216    0.0435 C.ar    1  UNL1        0.0000
     24 C           6.4597    0.9924    0.8027 C.ar    1  UNL1        0.0000
     25 O           5.0772    0.9845    0.7735 O.2     1  UNL1        0.0000
     26 C           4.8657   -0.0874   -0.0432 C.ar    1  UNL1        0.0000
     27 H          -3.6575   -2.4226   -3.0637 H       1  UNL1        0.0000
     28 H          -3.6798   -3.5005   -1.6356 H       1  UNL1        0.0000
     29 H          -5.4423   -1.5025   -1.2761 H       1  UNL1        0.0000
     30 H          -6.1908    0.5019    0.2251 H       1  UNL1        0.0000
     31 H          -6.2135    2.5785    1.7922 H       1  UNL1        0.0000
     32 H          -3.3279    3.9877    1.3269 H       1  UNL1        0.0000
     33 H          -3.3596    2.4735    3.3328 H       1  UNL1        0.0000
     34 H           2.6105    1.6105    1.2008 H       1  UNL1        0.0000
     35 H          -1.1934   -2.5040   -1.9655 H       1  UNL1        0.0000
     36 H           6.4321   -2.4639   -1.8196 H       1  UNL1        0.0000
     37 H           8.1181   -0.1918   -0.0679 H       1  UNL1        0.0000
     38 H           6.8796    1.7838    1.4101 H       1  UNL1        0.0000
@<TRIPOS>BOND
     1     1     2    1
     2     2     3    2
     3     3     4   ar
     4     4     5    1
     5     5     6    2
     6     6     7    1
     7     7     8    1
     8     8     9   ar
     9     9    10   ar
    10    10    11   ar
    11    11    12   ar
    12    12    13   ar
    13    13    14   ar
    14    14    15   ar
    15    15    16   ar
    16    16    17   ar
    17    17    18    2
    18    13    19    1
    19    19    20   ar
    20    20    21   ar
    21    21    22   ar
    22    22    23   ar
    23    23    24   ar
    24    24    25   ar
    25    25    26   ar
    26    18     1    1
    27    26    19   ar
    28    17     3   ar
    29    26    22   ar
    30     8     4   ar
    31    16     9   ar
    32    15    11   ar
    33     1    27    1
    34     1    28    1
    35     2    29    1
    36     5    30    1
    37     6    31    1
    38     7    32    1
    39     7    33    1
    40    12    34    1
    41    18    35    1
    42    21    36    1
    43    23    37    1
    44    24    38    1
