@<TRIPOS>MOLECULE
*****
 41 47 0 0 0
SMALL
GASTEIGER

@<TRIPOS>ATOM
      1 C          -3.4784    2.9143    1.8355 C.3     1  UNL1        0.0000
      2 C          -4.5222    1.9397    1.3649 C.2     1  UNL1        0.0000
      3 C          -3.9321    0.9351    0.6984 C.ar    1  UNL1        0.0000
      4 C          -4.5252   -0.2325    0.0626 C.ar    1  UNL1        0.0000
      5 C          -5.9416   -0.6002   -0.0040 C.2     1  UNL1        0.0000
      6 C          -6.2129   -1.7436   -0.6604 C.2     1  UNL1        0.0000
      7 SI         -4.6361   -2.5349   -1.3067 Si      1  UNL1        0.0000
      8 C          -3.6921   -1.1164   -0.5583 C.ar    1  UNL1        0.0000
      9 C          -2.2776   -0.8868   -0.5744 C.ar    1  UNL1        0.0000
     10 S          -1.1256   -1.9115   -1.3132 S.2     1  UNL1        0.0000
     11 C           0.1944   -0.9109   -0.8585 C.ar    1  UNL1        0.0000
     12 C           1.5603   -1.1089   -1.1251 C.ar    1  UNL1        0.0000
     13 C           2.4679   -0.1581   -0.6538 C.ar    1  UNL1        0.0000
     14 C           1.9479    0.9210    0.0526 C.ar    1  UNL1        0.0000
     15 N           0.6440    1.1439    0.3289 N.ar    1  UNL1        0.0000
     16 C          -0.2296    0.2076   -0.1402 C.ar    1  UNL1        0.0000
     17 C          -1.6476    0.2109    0.0155 C.ar    1  UNL1        0.0000
     18 C          -2.4829    1.1654    0.6789 C.ar    1  UNL1        0.0000
     19 C          -2.2048    2.3025    1.3302 C.2     1  UNL1        0.0000
     20 C           3.9077   -0.2837   -0.8707 C.ar    1  UNL1        0.0000
     21 S           4.5565   -0.8104   -2.4054 S.2     1  UNL1        0.0000
     22 C           6.2092   -0.6712   -1.8945 C.ar    1  UNL1        0.0000
     23 C           6.2100   -0.2405   -0.6181 C.ar    1  UNL1        0.0000
     24 N           7.3016    0.0005    0.1636 N.ar    1  UNL1        0.0000
     25 C           6.6978    0.4076    1.3517 C.ar    1  UNL1        0.0000
     26 C           5.2899    0.3981    1.2497 C.ar    1  UNL1        0.0000
     27 C           4.9668   -0.0299   -0.0658 C.ar    1  UNL1        0.0000
     28 H          -3.4738    2.9883    2.9270 H       1  UNL1        0.0000
     29 H          -3.6401    3.9042    1.3990 H       1  UNL1        0.0000
     30 H          -5.5793    2.0523    1.5472 H       1  UNL1        0.0000
     31 H          -6.7024    0.0210    0.4514 H       1  UNL1        0.0000
     32 H          -7.1818   -2.1885   -0.8220 H       1  UNL1        0.0000
     33 H          -4.6126   -2.5559   -2.7911 H       1  UNL1        0.0000
     34 H          -4.3795   -3.8410   -0.6487 H       1  UNL1        0.0000
     35 H           1.8868   -1.9875   -1.6725 H       1  UNL1        0.0000
     36 H           2.6078    1.6979    0.4350 H       1  UNL1        0.0000
     37 H          -1.2219    2.7244    1.4758 H       1  UNL1        0.0000
     38 H           7.0402   -0.9065   -2.5442 H       1  UNL1        0.0000
     39 H           8.2795   -0.1008   -0.0796 H       1  UNL1        0.0000
     40 H           7.3250    0.6727    2.1935 H       1  UNL1        0.0000
     41 H           4.6070    0.6656    2.0456 H       1  UNL1        0.0000
@<TRIPOS>BOND
     1     1     2    1
     2     2     3    2
     3     3     4   ar
     4     4     5    1
     5     5     6    2
     6     6     7    1
     7     7     8    1
     8     8     9   ar
     9     9    10   ar
    10    10    11   ar
    11    11    12   ar
    12    12    13   ar
    13    13    14   ar
    14    14    15   ar
    15    15    16   ar
    16    16    17   ar
    17    17    18   ar
    18    18    19    2
    19    13    20    1
    20    20    21   ar
    21    21    22   ar
    22    22    23   ar
    23    23    24   ar
    24    24    25   ar
    25    25    26   ar
    26    26    27   ar
    27    19     1    1
    28    27    20   ar
    29    18     3   ar
    30    27    23   ar
    31     8     4   ar
    32    17     9   ar
    33    16    11   ar
    34     1    28    1
    35     1    29    1
    36     2    30    1
    37     5    31    1
    38     6    32    1
    39     7    33    1
    40     7    34    1
    41    12    35    1
    42    14    36    1
    43    19    37    1
    44    22    38    1
    45    24    39    1
    46    25    40    1
    47    26    41    1
