@<TRIPOS>MOLECULE
*****
 48 55 0 0 0
SMALL
GASTEIGER

@<TRIPOS>ATOM
      1 C          -3.3706    3.9481    0.6182 C.3     1  UNL1       -0.0148
      2 C          -4.4201    2.9511    0.2510 C.2     1  UNL1       -0.0720
      3 C          -3.8522    1.7462    0.0966 C.ar    1  UNL1       -0.0138
      4 C          -4.5019    0.4845   -0.1115 C.ar    1  UNL1       -0.0138
      5 C          -5.8852    0.1551   -0.3655 C.2     1  UNL1       -0.0574
      6 C          -6.0135   -1.1741   -0.4741 C.2     1  UNL1       -0.0791
      7 C          -4.6735   -1.8276   -0.2804 C.3     1  UNL1       -0.0080
      8 C          -3.7720   -0.6505   -0.0585 C.ar    1  UNL1       -0.0276
      9 C          -2.3137   -0.6300    0.1306 C.ar    1  UNL1       -0.0035
     10 C          -1.4923   -1.7627    0.2180 C.ar    1  UNL1        0.0080
     11 C          -1.8472   -3.0920    0.2453 C.ar    1  UNL1        0.0100
     12 N          -0.6939   -3.8390    0.3492 N.ar    1  UNL1       -0.3659
     13 C           0.4007   -3.0101    0.3818 C.ar    1  UNL1        0.0100
     14 C          -0.0645   -1.7181    0.3067 C.ar    1  UNL1        0.0078
     15 C           0.7217   -0.5451    0.2776 C.ar    1  UNL1       -0.0047
     16 C           2.1345   -0.5229    0.3102 C.ar    1  UNL1       -0.0268
     17 C           2.7778    0.6959    0.2066 C.ar    1  UNL1        0.0788
     18 N           2.0951    1.8484    0.0519 N.ar    1  UNL1       -0.2538
     19 C           0.7337    1.7854    0.0294 C.ar    1  UNL1        0.0366
     20 C          -0.0659    0.6411    0.1812 C.ar    1  UNL1        0.0092
     21 C          -1.5431    0.6061    0.1954 C.ar    1  UNL1       -0.0004
     22 C          -2.3997    1.8377    0.2911 C.ar    1  UNL1       -0.0129
     23 C          -2.1279    3.1051    0.6567 C.2     1  UNL1       -0.0719
     24 C           4.2351    0.8077    0.2213 C.ar    1  UNL1        0.0467
     25 S           5.0263    2.2314    0.8623 S.2     1  UNL1       -0.0924
     26 C           6.6257    1.6277    0.5701 C.ar    1  UNL1        0.0002
     27 C           6.5088    0.4074    0.0125 C.ar    1  UNL1        0.0542
     28 N           7.5279   -0.4104   -0.3792 N.ar    1  UNL1       -0.3602
     29 C           6.8215   -1.5011   -0.8810 C.ar    1  UNL1        0.0028
     30 C           5.4271   -1.3077   -0.7788 C.ar    1  UNL1       -0.0355
     31 C           5.2187   -0.0362   -0.1760 C.ar    1  UNL1        0.0159
     32 H          -3.2896    4.7396   -0.1323 H       1  UNL1        0.0350
     33 H          -3.5741    4.3885    1.5988 H       1  UNL1        0.0350
     34 H          -5.4749    3.1710    0.1966 H       1  UNL1        0.0581
     35 H          -6.6777    0.8815   -0.4553 H       1  UNL1        0.0621
     36 H          -6.9332   -1.7052   -0.6655 H       1  UNL1        0.0575
     37 H          -4.3963   -2.3935   -1.1750 H       1  UNL1        0.0356
     38 H          -4.7111   -2.4838    0.5942 H       1  UNL1        0.0356
     39 H          -2.7943   -3.6068    0.2123 H       1  UNL1        0.0813
     40 H          -0.6599   -4.8497    0.3919 H       1  UNL1        0.1648
     41 H           1.3956   -3.4275    0.4527 H       1  UNL1        0.0813
     42 H           2.7014   -1.4389    0.4162 H       1  UNL1        0.0645
     43 H           0.2988    2.7543   -0.1828 H       1  UNL1        0.0836
     44 H          -1.1891    3.5165    0.9864 H       1  UNL1        0.0581
     45 H           7.5128    2.1931    0.8171 H       1  UNL1        0.0714
     46 H           8.5241   -0.2398   -0.3159 H       1  UNL1        0.1653
     47 H           7.3727   -2.3403   -1.2859 H       1  UNL1        0.0807
     48 H           4.6775   -2.0108   -1.1164 H       1  UNL1        0.0639
@<TRIPOS>BOND
     1     1     2    1
     2     2     3    2
     3     3     4   ar
     4     4     5    1
     5     5     6    2
     6     6     7    1
     7     7     8    1
     8     8     9   ar
     9     9    10   ar
    10    10    11   ar
    11    11    12   ar
    12    12    13   ar
    13    13    14   ar
    14    14    15   ar
    15    15    16   ar
    16    16    17   ar
    17    17    18   ar
    18    18    19   ar
    19    19    20   ar
    20    20    21   ar
    21    21    22   ar
    22    22    23    2
    23    17    24    1
    24    24    25   ar
    25    25    26   ar
    26    26    27   ar
    27    27    28   ar
    28    28    29   ar
    29    29    30   ar
    30    30    31   ar
    31    23     1    1
    32    31    24   ar
    33    22     3   ar
    34    31    27   ar
    35     8     4   ar
    36    21     9   ar
    37    14    10   ar
    38    20    15   ar
    39     1    32    1
    40     1    33    1
    41     2    34    1
    42     5    35    1
    43     6    36    1
    44     7    37    1
    45     7    38    1
    46    11    39    1
    47    12    40    1
    48    13    41    1
    49    16    42    1
    50    19    43    1
    51    23    44    1
    52    26    45    1
    53    28    46    1
    54    29    47    1
    55    30    48    1
