@<TRIPOS>MOLECULE
*****
 47 54 0 0 0
SMALL
GASTEIGER

@<TRIPOS>ATOM
      1 SI          0.5673   -3.7770   -0.1865 Si      1  UNL1        0.0000
      2 C           1.8698   -2.4737   -0.3732 C.2     1  UNL1        0.0000
      3 C           1.3351   -1.2464   -0.5497 C.ar    1  UNL1        0.0000
      4 C           2.1206   -0.0646   -0.9036 C.ar    1  UNL1        0.0000
      5 C           1.4526    1.0563   -1.2436 C.ar    1  UNL1        0.0000
      6 C          -0.0182    1.1509   -1.1835 C.ar    1  UNL1        0.0000
      7 C          -0.6349    2.3637   -1.5947 C.ar    1  UNL1        0.0000
      8 N          -0.0283    3.4351   -2.1399 N.ar    1  UNL1        0.0000
      9 S          -1.2066    4.5504   -2.4603 S.2     1  UNL1        0.0000
     10 N          -2.5394    3.7465   -1.8985 N.ar    1  UNL1        0.0000
     11 C          -2.1134    2.5562   -1.4340 C.ar    1  UNL1        0.0000
     12 C          -2.9186    1.5498   -0.8079 C.ar    1  UNL1        0.0000
     13 C          -4.2992    1.7870   -0.6018 C.ar    1  UNL1        0.0000
     14 C          -5.0895    0.8639    0.0872 C.ar    1  UNL1        0.0000
     15 C          -6.4560    1.0743    0.3113 C.ar    1  UNL1        0.0000
     16 C          -7.1657    0.1267    1.0305 C.ar    1  UNL1        0.0000
     17 N          -6.6166   -0.9954    1.5369 N.ar    1  UNL1        0.0000
     18 C          -5.2951   -1.1771    1.3077 C.ar    1  UNL1        0.0000
     19 C          -4.4826   -0.2942    0.5898 C.ar    1  UNL1        0.0000
     20 C          -3.1047   -0.5229    0.3661 C.ar    1  UNL1        0.0000
     21 C          -2.2728    0.3498   -0.3804 C.ar    1  UNL1        0.0000
     22 C          -0.8663    0.1159   -0.6692 C.ar    1  UNL1        0.0000
     23 C          -0.1540   -1.1961   -0.4832 C.ar    1  UNL1        0.0000
     24 C          -0.7112   -2.4250   -0.4030 C.2     1  UNL1        0.0000
     25 C           3.5518   -0.0081   -0.9342 C.ar    1  UNL1        0.0000
     26 S           4.4025   -0.0041   -2.4570 S.2     1  UNL1        0.0000
     27 C           5.9561    0.0492   -1.7095 C.ar    1  UNL1        0.0000
     28 C           5.8083    0.0526   -0.3580 C.ar    1  UNL1        0.0000
     29 SI          6.9548    0.0919    1.1335 Si      1  UNL1        0.0000
     30 C           5.4038    0.0509    2.2527 C.2     1  UNL1        0.0000
     31 C           4.2687    0.0168    1.5204 C.2     1  UNL1        0.0000
     32 C           4.4636    0.0172    0.0987 C.ar    1  UNL1        0.0000
     33 H           0.5460   -4.7471   -1.3067 H       1  UNL1        0.0000
     34 H           0.5218   -4.3612    1.1754 H       1  UNL1        0.0000
     35 H           2.9148   -2.7394   -0.4230 H       1  UNL1        0.0000
     36 H           1.9937    1.9559   -1.5300 H       1  UNL1        0.0000
     37 H          -4.7465    2.7110   -0.9671 H       1  UNL1        0.0000
     38 H          -6.9618    1.9594   -0.0602 H       1  UNL1        0.0000
     39 H          -8.2268    0.2529    1.2263 H       1  UNL1        0.0000
     40 H          -4.8916   -2.0931    1.7321 H       1  UNL1        0.0000
     41 H          -2.6749   -1.3966    0.8475 H       1  UNL1        0.0000
     42 H          -1.7459   -2.7105   -0.4735 H       1  UNL1        0.0000
     43 H           6.8554    0.0711   -2.3098 H       1  UNL1        0.0000
     44 H           7.6956    1.3673    1.2971 H       1  UNL1        0.0000
     45 H           7.7648   -1.1399    1.3057 H       1  UNL1        0.0000
     46 H           5.4946    0.0582    3.3268 H       1  UNL1        0.0000
     47 H           3.2788   -0.0085    1.9619 H       1  UNL1        0.0000
@<TRIPOS>BOND
     1     1     2    1
     2     2     3    2
     3     3     4   ar
     4     4     5   ar
     5     5     6   ar
     6     6     7   ar
     7     7     8   ar
     8     8     9   ar
     9     9    10   ar
    10    10    11   ar
    11    11    12   ar
    12    12    13   ar
    13    13    14   ar
    14    14    15   ar
    15    15    16   ar
    16    16    17   ar
    17    17    18   ar
    18    18    19   ar
    19    19    20   ar
    20    20    21   ar
    21    21    22   ar
    22    22    23   ar
    23    23    24    2
    24     4    25    1
    25    25    26   ar
    26    26    27   ar
    27    27    28   ar
    28    28    29    1
    29    29    30    1
    30    30    31    2
    31    31    32    1
    32    24     1    1
    33    32    25   ar
    34    23     3   ar
    35    32    28   ar
    36    22     6   ar
    37    11     7   ar
    38    21    12   ar
    39    19    14   ar
    40     1    33    1
    41     1    34    1
    42     2    35    1
    43     5    36    1
    44    13    37    1
    45    15    38    1
    46    16    39    1
    47    18    40    1
    48    20    41    1
    49    24    42    1
    50    27    43    1
    51    29    44    1
    52    29    45    1
    53    30    46    1
    54    31    47    1
