@<TRIPOS>MOLECULE
*****
 48 55 0 0 0
SMALL
GASTEIGER

@<TRIPOS>ATOM
      1 C          -2.2324   -4.0224   -1.1359 C.3     1  UNL1        0.0000
      2 C          -3.5539   -3.3246   -1.0904 C.2     1  UNL1        0.0000
      3 C          -3.3689   -2.0433   -0.7402 C.ar    1  UNL1        0.0000
      4 C          -4.3516   -1.0112   -0.5718 C.ar    1  UNL1        0.0000
      5 C          -5.7876   -1.0463   -0.7270 C.2     1  UNL1        0.0000
      6 C          -6.2939    0.1647   -0.4631 C.2     1  UNL1        0.0000
      7 C          -5.1806    1.1066   -0.1043 C.3     1  UNL1        0.0000
      8 C          -3.9644    0.2332   -0.2083 C.ar    1  UNL1        0.0000
      9 C          -2.5461    0.5803    0.0256 C.ar    1  UNL1        0.0000
     10 C          -2.0641    1.8646    0.4097 C.ar    1  UNL1        0.0000
     11 C          -2.8056    3.0023    0.6330 C.ar    1  UNL1        0.0000
     12 S          -1.8407    4.3555    1.0833 S.2     1  UNL1        0.0000
     13 C          -0.3953    3.4437    0.9900 C.ar    1  UNL1        0.0000
     14 C          -0.6520    2.1457    0.6244 C.ar    1  UNL1        0.0000
     15 C           0.3315    1.1823    0.4698 C.ar    1  UNL1        0.0000
     16 C           1.7643    1.2393    0.6240 C.2     1  UNL1        0.0000
     17 C           2.2423    0.0123    0.3388 C.2     1  UNL1        0.0000
     18 C           1.1138   -0.9595   -0.0090 C.3     1  UNL1        0.0000
     19 C          -0.1183   -0.0965    0.0910 C.ar    1  UNL1        0.0000
     20 C          -1.4885   -0.4209   -0.1293 C.ar    1  UNL1        0.0000
     21 C          -1.9446   -1.7812   -0.5279 C.ar    1  UNL1        0.0000
     22 C          -1.2774   -2.9272   -0.7555 C.2     1  UNL1        0.0000
     23 C           3.6415   -0.2620    0.4023 C.ar    1  UNL1        0.0000
     24 S           4.1740   -1.7731    1.0986 S.2     1  UNL1        0.0000
     25 C           5.8437   -1.4177    0.8814 C.ar    1  UNL1        0.0000
     26 C           5.9711   -0.2063    0.2799 C.ar    1  UNL1        0.0000
     27 SI          7.4044    0.8607   -0.3109 Si      1  UNL1        0.0000
     28 C           6.1222    2.1306   -0.9331 C.2     1  UNL1        0.0000
     29 C           4.8591    1.7229   -0.6799 C.2     1  UNL1        0.0000
     30 C           4.7463    0.4571   -0.0092 C.ar    1  UNL1        0.0000
     31 H          -2.0184   -4.3998   -2.1401 H       1  UNL1        0.0000
     32 H          -2.1942   -4.8452   -0.4162 H       1  UNL1        0.0000
     33 H          -4.4990   -3.7969   -1.3079 H       1  UNL1        0.0000
     34 H          -6.3485   -1.9227   -1.0122 H       1  UNL1        0.0000
     35 H          -7.3386    0.4333   -0.4993 H       1  UNL1        0.0000
     36 H          -5.3291    1.4804    0.9133 H       1  UNL1        0.0000
     37 H          -5.1526    1.9328   -0.8212 H       1  UNL1        0.0000
     38 H          -3.8663    3.1716    0.5715 H       1  UNL1        0.0000
     39 H           0.5521    3.9156    1.2096 H       1  UNL1        0.0000
     40 H           2.3177    2.1127    0.9271 H       1  UNL1        0.0000
     41 H           1.2495   -1.3354   -1.0278 H       1  UNL1        0.0000
     42 H           1.0731   -1.7752    0.7192 H       1  UNL1        0.0000
     43 H          -0.2178   -3.1015   -0.6911 H       1  UNL1        0.0000
     44 H           6.6040   -2.1187    1.1981 H       1  UNL1        0.0000
     45 H           8.1682    0.2763   -1.4413 H       1  UNL1        0.0000
     46 H           8.2285    1.4288    0.7848 H       1  UNL1        0.0000
     47 H           6.4334    3.0358   -1.4290 H       1  UNL1        0.0000
     48 H           3.9895    2.2984   -0.9746 H       1  UNL1        0.0000
@<TRIPOS>BOND
     1     1     2    1
     2     2     3    2
     3     3     4   ar
     4     4     5    1
     5     5     6    2
     6     6     7    1
     7     7     8    1
     8     8     9   ar
     9     9    10   ar
    10    10    11   ar
    11    11    12   ar
    12    12    13   ar
    13    13    14   ar
    14    14    15   ar
    15    15    16    1
    16    16    17    2
    17    17    18    1
    18    18    19    1
    19    19    20   ar
    20    20    21   ar
    21    21    22    2
    22    17    23    1
    23    23    24   ar
    24    24    25   ar
    25    25    26   ar
    26    26    27    1
    27    27    28    1
    28    28    29    2
    29    29    30    1
    30    22     1    1
    31    30    23   ar
    32    21     3   ar
    33    30    26   ar
    34     8     4   ar
    35    20     9   ar
    36    14    10   ar
    37    19    15   ar
    38     1    31    1
    39     1    32    1
    40     2    33    1
    41     5    34    1
    42     6    35    1
    43     7    36    1
    44     7    37    1
    45    11    38    1
    46    13    39    1
    47    16    40    1
    48    18    41    1
    49    18    42    1
    50    22    43    1
    51    25    44    1
    52    27    45    1
    53    27    46    1
    54    28    47    1
    55    29    48    1
