@<TRIPOS>MOLECULE
*****
 44 51 0 0 0
SMALL
GASTEIGER

@<TRIPOS>ATOM
      1 C          -2.6979    1.5284    3.6565 C.3     1  UNL1       -0.0148
      2 C          -3.8602    1.3328    2.7400 C.2     1  UNL1       -0.0720
      3 C          -3.4194    0.9012    1.5493 C.ar    1  UNL1       -0.0138
      4 C          -4.1891    0.5870    0.3801 C.ar    1  UNL1       -0.0138
      5 C          -5.6153    0.6425    0.1547 C.2     1  UNL1       -0.0574
      6 C          -5.8835    0.2551   -1.0980 C.2     1  UNL1       -0.0791
      7 C          -4.6024   -0.0917   -1.7994 C.3     1  UNL1       -0.0080
      8 C          -3.5657    0.1613   -0.7427 C.ar    1  UNL1       -0.0276
      9 C          -2.0950    0.0034   -0.8161 C.ar    1  UNL1       -0.0040
     10 C          -1.3690   -0.4330   -1.9434 C.ar    1  UNL1       -0.0022
     11 C          -1.9006   -0.7866   -3.1680 C.ar    1  UNL1       -0.0160
     12 S          -0.7149   -1.2749   -4.3255 S.2     1  UNL1       -0.1038
     13 C           0.5621   -1.0256   -3.2117 C.ar    1  UNL1       -0.0160
     14 C           0.0412   -0.5888   -2.0261 C.ar    1  UNL1       -0.0020
     15 C           0.8291   -0.2802   -0.8677 C.ar    1  UNL1       -0.0014
     16 C           2.2347   -0.3886   -0.8070 C.ar    1  UNL1       -0.0380
     17 C           2.7104   -0.0234    0.4372 C.ar    1  UNL1        0.0306
     18 S           1.4072    0.4311    1.4588 S.2     1  UNL1       -0.0870
     19 C           0.1707    0.1549    0.2741 C.ar    1  UNL1        0.0288
     20 C          -1.2559    0.3042    0.3322 C.ar    1  UNL1        0.0047
     21 C          -1.9585    0.7726    1.5624 C.ar    1  UNL1       -0.0124
     22 C          -1.5377    1.1373    2.7881 C.2     1  UNL1       -0.0719
     23 C           4.0829   -0.0019    0.8843 C.ar    1  UNL1        0.0687
     24 S           4.6155    0.4718    2.4784 S.2     1  UNL1       -0.0918
     25 C           6.2964    0.2060    2.1341 C.ar    1  UNL1       -0.0128
     26 C           6.3853   -0.2200    0.8585 C.ar    1  UNL1        0.0278
     27 C           7.3563   -0.6138   -0.0735 C.ar    1  UNL1       -0.0156
     28 C           6.6353   -0.9275   -1.2314 C.ar    1  UNL1        0.0932
     29 O           5.2681   -0.7633   -1.1105 O.2     1  UNL1       -0.4618
     30 C           5.1931   -0.3329    0.1827 C.ar    1  UNL1        0.1500
     31 H          -2.6163    2.5713    3.9764 H       1  UNL1        0.0350
     32 H          -2.7703    0.8781    4.5331 H       1  UNL1        0.0350
     33 H          -4.8874    1.5162    3.0133 H       1  UNL1        0.0581
     34 H          -6.3378    0.9510    0.8941 H       1  UNL1        0.0621
     35 H          -6.8645    0.1975   -1.5443 H       1  UNL1        0.0575
     36 H          -4.4710    0.5637   -2.6658 H       1  UNL1        0.0356
     37 H          -4.6259   -1.1422   -2.1053 H       1  UNL1        0.0356
     38 H          -2.9191   -0.8068   -3.5126 H       1  UNL1        0.0700
     39 H           1.5855   -1.2145   -3.5027 H       1  UNL1        0.0700
     40 H           2.8753   -0.7129   -1.6162 H       1  UNL1        0.0635
     41 H          -0.5310    1.1698    3.1651 H       1  UNL1        0.0581
     42 H           7.0613    0.3798    2.8773 H       1  UNL1        0.0701
     43 H           8.4288   -0.6729    0.0440 H       1  UNL1        0.0655
     44 H           6.9494   -1.2756   -2.2070 H       1  UNL1        0.1030
@<TRIPOS>BOND
     1     1     2    1
     2     2     3    2
     3     3     4   ar
     4     4     5    1
     5     5     6    2
     6     6     7    1
     7     7     8    1
     8     8     9   ar
     9     9    10   ar
    10    10    11   ar
    11    11    12   ar
    12    12    13   ar
    13    13    14   ar
    14    14    15   ar
    15    15    16   ar
    16    16    17   ar
    17    17    18   ar
    18    18    19   ar
    19    19    20   ar
    20    20    21   ar
    21    21    22    2
    22    17    23    1
    23    23    24   ar
    24    24    25   ar
    25    25    26   ar
    26    26    27   ar
    27    27    28   ar
    28    28    29   ar
    29    29    30   ar
    30    22     1    1
    31    30    23   ar
    32    21     3   ar
    33    30    26   ar
    34     8     4   ar
    35    20     9   ar
    36    14    10   ar
    37    19    15   ar
    38     1    31    1
    39     1    32    1
    40     2    33    1
    41     5    34    1
    42     6    35    1
    43     7    36    1
    44     7    37    1
    45    11    38    1
    46    13    39    1
    47    16    40    1
    48    22    41    1
    49    25    42    1
    50    27    43    1
    51    28    44    1
