@<TRIPOS>MOLECULE
*****
 50 57 0 0 0
SMALL
GASTEIGER

@<TRIPOS>ATOM
      1 C           2.1318    3.5856    1.4166 C.3     1  UNL1       -0.0148
      2 C           3.5190    3.0281    1.3564 C.2     1  UNL1       -0.0720
      3 C           3.4642    1.7337    1.0117 C.ar    1  UNL1       -0.0138
      4 C           4.5439    0.8037    0.8342 C.ar    1  UNL1       -0.0138
      5 C           5.9740    0.9586    0.9645 C.2     1  UNL1       -0.0574
      6 C           6.5768   -0.2082    0.6944 C.2     1  UNL1       -0.0791
      7 C           5.5447   -1.2493    0.3553 C.3     1  UNL1       -0.0079
      8 C           4.2672   -0.4701    0.4809 C.ar    1  UNL1       -0.0261
      9 C           2.8897   -0.9550    0.2665 C.ar    1  UNL1        0.0152
     10 C           2.6389   -2.3186   -0.1092 C.ar    1  UNL1        0.1084
     11 N           3.5353   -3.3022   -0.3123 N.ar    1  UNL1       -0.1901
     12 S           2.6873   -4.6645   -0.7261 S.2     1  UNL1        0.1165
     13 N           1.1324   -4.0935   -0.6728 N.ar    1  UNL1       -0.1902
     14 C           1.2174   -2.7995   -0.3259 C.ar    1  UNL1        0.1079
     15 C           0.1648   -1.8880   -0.1520 C.ar    1  UNL1        0.0075
     16 C          -1.2535   -2.1260   -0.3054 C.2     1  UNL1       -0.0481
     17 C          -1.8554   -0.9562   -0.0374 C.2     1  UNL1       -0.0347
     18 C          -0.8870    0.1533    0.3199 C.3     1  UNL1       -0.0006
     19 C           0.4421   -0.5550    0.2173 C.ar    1  UNL1       -0.0254
     20 C           1.7493   -0.0729    0.4275 C.ar    1  UNL1       -0.0039
     21 C           2.0690    1.3261    0.8168 C.ar    1  UNL1       -0.0132
     22 C           1.2887    2.3963    1.0505 C.2     1  UNL1       -0.0719
     23 C          -3.2999   -0.7237   -0.0660 C.ar    1  UNL1       -0.0138
     24 C          -4.0392   -1.1533    1.0466 C.ar    1  UNL1       -0.0537
     25 C          -5.4136   -0.9484    1.1041 C.ar    1  UNL1       -0.0606
     26 C          -6.0640   -0.3145    0.0484 C.ar    1  UNL1       -0.0540
     27 C          -5.3538    0.1160   -1.0829 C.ar    1  UNL1       -0.0173
     28 C          -6.0281    0.7463   -2.1422 C.ar    1  UNL1       -0.0540
     29 C          -5.3423    1.1716   -3.2791 C.ar    1  UNL1       -0.0612
     30 C          -3.9722    0.9683   -3.3744 C.ar    1  UNL1       -0.0611
     31 C          -3.2871    0.3444   -2.3295 C.ar    1  UNL1       -0.0535
     32 C          -3.9529   -0.0898   -1.1583 C.ar    1  UNL1       -0.0105
     33 H           2.0002    4.3977    0.6955 H       1  UNL1        0.0350
     34 H           1.8922    3.9426    2.4225 H       1  UNL1        0.0350
     35 H           4.4131    3.5959    1.5620 H       1  UNL1        0.0581
     36 H           6.4644    1.8798    1.2381 H       1  UNL1        0.0621
     37 H           7.6408   -0.3879    0.7135 H       1  UNL1        0.0575
     38 H           5.5939   -2.0749    1.0718 H       1  UNL1        0.0356
     39 H           5.7023   -1.6173   -0.6631 H       1  UNL1        0.0356
     40 H          -1.7029   -3.0660   -0.5836 H       1  UNL1        0.0627
     41 H          -0.9481    0.9745   -0.4000 H       1  UNL1        0.0362
     42 H          -1.0663    0.5032    1.3413 H       1  UNL1        0.0362
     43 H           0.2154    2.4566    0.9996 H       1  UNL1        0.0581
     44 H          -3.5421   -1.6467    1.8795 H       1  UNL1        0.0624
     45 H          -5.9782   -1.2808    1.9711 H       1  UNL1        0.0618
     46 H          -7.1395   -0.1628    0.1129 H       1  UNL1        0.0624
     47 H          -7.1027    0.9089   -2.0902 H       1  UNL1        0.0624
     48 H          -5.8802    1.6552   -4.0901 H       1  UNL1        0.0618
     49 H          -3.4327    1.2894   -4.2615 H       1  UNL1        0.0618
     50 H          -2.2166    0.1895   -2.4445 H       1  UNL1        0.0624
@<TRIPOS>BOND
     1     1     2    1
     2     2     3    2
     3     3     4   ar
     4     4     5    1
     5     5     6    2
     6     6     7    1
     7     7     8    1
     8     8     9   ar
     9     9    10   ar
    10    10    11   ar
    11    11    12   ar
    12    12    13   ar
    13    13    14   ar
    14    14    15   ar
    15    15    16    1
    16    16    17    2
    17    17    18    1
    18    18    19    1
    19    19    20   ar
    20    20    21   ar
    21    21    22    2
    22    17    23    1
    23    23    24   ar
    24    24    25   ar
    25    25    26   ar
    26    26    27   ar
    27    27    28   ar
    28    28    29   ar
    29    29    30   ar
    30    30    31   ar
    31    31    32   ar
    32    22     1    1
    33    32    23   ar
    34    21     3   ar
    35    32    27   ar
    36     8     4   ar
    37    20     9   ar
    38    14    10   ar
    39    19    15   ar
    40     1    33    1
    41     1    34    1
    42     2    35    1
    43     5    36    1
    44     6    37    1
    45     7    38    1
    46     7    39    1
    47    16    40    1
    48    18    41    1
    49    18    42    1
    50    22    43    1
    51    24    44    1
    52    25    45    1
    53    26    46    1
    54    28    47    1
    55    29    48    1
    56    30    49    1
    57    31    50    1
