@<TRIPOS>MOLECULE
*****
 46 52 0 0 0
SMALL
GASTEIGER

@<TRIPOS>ATOM
      1 C          -2.0731    3.3861   -0.4404 C.3     1  UNL1       -0.0148
      2 C          -3.4324    2.7650   -0.3887 C.2     1  UNL1       -0.0720
      3 C          -3.3083    1.4324   -0.3150 C.ar    1  UNL1       -0.0137
      4 C          -4.3396    0.4341   -0.2434 C.ar    1  UNL1       -0.0138
      5 C          -5.7807    0.5353   -0.2304 C.2     1  UNL1       -0.0574
      6 C          -6.3161   -0.6922   -0.1514 C.2     1  UNL1       -0.0791
      7 C          -5.2218   -1.7229   -0.1055 C.3     1  UNL1       -0.0080
      8 C          -3.9908   -0.8685   -0.1717 C.ar    1  UNL1       -0.0281
      9 C          -2.5883   -1.3377   -0.1635 C.ar    1  UNL1       -0.0113
     10 C          -2.3002   -2.7023   -0.0870 C.ar    1  UNL1       -0.0530
     11 C          -0.9783   -3.1561   -0.0799 C.ar    1  UNL1       -0.0520
     12 C           0.0796   -2.2312   -0.1510 C.ar    1  UNL1        0.0009
     13 C           1.4943   -2.3788   -0.1654 C.ar    1  UNL1       -0.0286
     14 C           2.0607   -1.1228   -0.2289 C.ar    1  UNL1        0.0481
     15 N           1.0153   -0.2321   -0.2971 N.ar    1  UNL1       -0.3536
     16 C          -0.2059   -0.8637   -0.2290 C.ar    1  UNL1        0.0553
     17 C          -1.5285   -0.3779   -0.2361 C.ar    1  UNL1        0.0137
     18 C          -1.8875    1.0574   -0.3121 C.ar    1  UNL1       -0.0115
     19 C          -1.1640    2.1894   -0.3824 C.2     1  UNL1       -0.0719
     20 C           3.4484   -0.7128   -0.2904 C.ar    1  UNL1        0.0074
     21 C           4.4298   -1.3514   -1.0883 C.ar    1  UNL1       -0.0520
     22 C           5.8042   -0.9295   -1.1683 C.ar    1  UNL1       -0.0605
     23 C           6.3428    0.1667   -0.4562 C.ar    1  UNL1       -0.0526
     24 C           5.3673    0.7665    0.3295 C.ar    1  UNL1        0.0000
     25 C           5.5594    1.8353    1.1655 C.ar    1  UNL1        0.0094
     26 N           4.3504    2.0838    1.7793 N.ar    1  UNL1       -0.3659
     27 C           3.3953    1.1898    1.3378 C.ar    1  UNL1        0.0100
     28 C           3.9983    0.3636    0.4182 C.ar    1  UNL1        0.0085
     29 H          -1.9075    4.0464    0.4159 H       1  UNL1        0.0350
     30 H          -1.9284    3.9443   -1.3700 H       1  UNL1        0.0350
     31 H          -4.3581    3.3184   -0.4079 H       1  UNL1        0.0581
     32 H          -6.3245    1.4658   -0.2780 H       1  UNL1        0.0621
     33 H          -7.3711   -0.9182   -0.1245 H       1  UNL1        0.0575
     34 H          -5.2704   -2.2942    0.8268 H       1  UNL1        0.0356
     35 H          -5.2939   -2.3990   -0.9631 H       1  UNL1        0.0356
     36 H          -3.0957   -3.4403   -0.0314 H       1  UNL1        0.0624
     37 H          -0.7697   -4.2206   -0.0196 H       1  UNL1        0.0624
     38 H           2.0403   -3.3120   -0.1177 H       1  UNL1        0.0645
     39 H           1.1485    0.7598   -0.3961 H       1  UNL1        0.1659
     40 H          -0.0958    2.2989   -0.3995 H       1  UNL1        0.0581
     41 H           4.1324   -2.2083   -1.6936 H       1  UNL1        0.0624
     42 H           6.4695   -1.4949   -1.8218 H       1  UNL1        0.0618
     43 H           7.3775    0.4701   -0.5204 H       1  UNL1        0.0624
     44 H           6.4310    2.4316    1.3984 H       1  UNL1        0.0813
     45 H           4.1912    2.8040    2.4719 H       1  UNL1        0.1648
     46 H           2.3945    1.2224    1.7457 H       1  UNL1        0.0813
@<TRIPOS>BOND
     1     1     2    1
     2     2     3    2
     3     3     4   ar
     4     4     5    1
     5     5     6    2
     6     6     7    1
     7     7     8    1
     8     8     9   ar
     9     9    10   ar
    10    10    11   ar
    11    11    12   ar
    12    12    13   ar
    13    13    14   ar
    14    14    15   ar
    15    15    16   ar
    16    16    17   ar
    17    17    18   ar
    18    18    19    2
    19    14    20    1
    20    20    21   ar
    21    21    22   ar
    22    22    23   ar
    23    23    24   ar
    24    24    25   ar
    25    25    26   ar
    26    26    27   ar
    27    27    28   ar
    28    19     1    1
    29    28    20   ar
    30    18     3   ar
    31    28    24   ar
    32     8     4   ar
    33    17     9   ar
    34    16    12   ar
    35     1    29    1
    36     1    30    1
    37     2    31    1
    38     5    32    1
    39     6    33    1
    40     7    34    1
    41     7    35    1
    42    10    36    1
    43    11    37    1
    44    13    38    1
    45    15    39    1
    46    19    40    1
    47    21    41    1
    48    22    42    1
    49    23    43    1
    50    25    44    1
    51    26    45    1
    52    27    46    1
