@<TRIPOS>MOLECULE
*****
 50 57 0 0 0
SMALL
GASTEIGER

@<TRIPOS>ATOM
      1 C          -3.9858   -3.0271   -1.4514 C.3     1  UNL1       -0.0148
      2 C          -4.9280   -1.8670   -1.3637 C.2     1  UNL1       -0.0720
      3 C          -4.2736   -0.8053   -0.8717 C.ar    1  UNL1       -0.0138
      4 C          -4.8035    0.4554   -0.4409 C.ar    1  UNL1       -0.0138
      5 C          -6.1135    1.0504   -0.5576 C.2     1  UNL1       -0.0574
      6 C          -6.1180    2.2441    0.0547 C.2     1  UNL1       -0.0791
      7 C          -4.7605    2.5210    0.6411 C.3     1  UNL1       -0.0080
      8 C          -3.9985    1.2891    0.2504 C.ar    1  UNL1       -0.0282
      9 C          -2.5728    1.0027    0.5267 C.ar    1  UNL1       -0.0126
     10 C          -1.8344    1.8666    1.3380 C.ar    1  UNL1       -0.0531
     11 C          -0.4758    1.6443    1.5686 C.ar    1  UNL1       -0.0534
     12 C           0.2254    0.6230    0.9219 C.ar    1  UNL1       -0.0160
     13 C           1.6409    0.5254    1.1797 C.ar    1  UNL1       -0.0451
     14 C           2.5187   -0.3795    0.5492 C.ar    1  UNL1       -0.0013
     15 C           3.9437   -0.4300    0.7874 C.ar    1  UNL1        0.0240
     16 S           4.6413   -1.7741    1.6263 S.2     1  UNL1       -0.0958
     17 C           6.2413   -1.1228    1.5367 C.ar    1  UNL1       -0.0163
     18 C           6.2033    0.0766    0.8946 C.ar    1  UNL1       -0.0142
     19 C           7.1472    1.0654    0.5239 C.2     1  UNL1       -0.0574
     20 C           6.5072    2.0721   -0.1148 C.2     1  UNL1       -0.0791
     21 C           5.0011    1.8008   -0.2166 C.3     1  UNL1       -0.0075
     22 C           4.9171    0.4813    0.4713 C.ar    1  UNL1       -0.0217
     23 C           1.8523   -1.1238   -0.4190 C.ar    1  UNL1        0.0082
     24 C           2.4244   -1.9797   -1.3301 C.ar    1  UNL1        0.0100
     25 N           1.4253   -2.3960   -2.1748 N.ar    1  UNL1       -0.3659
     26 C           0.2351   -1.7976   -1.8255 C.ar    1  UNL1        0.0100
     27 C           0.4413   -1.0642   -0.6792 C.ar    1  UNL1        0.0083
     28 C          -0.5035   -0.2439    0.0234 C.ar    1  UNL1       -0.0004
     29 C          -1.9348   -0.1337   -0.0604 C.ar    1  UNL1       -0.0018
     30 C          -2.8615   -1.1358   -0.6568 C.ar    1  UNL1       -0.0129
     31 C          -2.7098   -2.4467   -0.9147 C.2     1  UNL1       -0.0719
     32 H          -3.8644   -3.3676   -2.4836 H       1  UNL1        0.0350
     33 H          -4.3296   -3.8569   -0.8267 H       1  UNL1        0.0350
     34 H          -5.9844   -1.9226   -1.5748 H       1  UNL1        0.0581
     35 H          -6.9475    0.5887   -1.0627 H       1  UNL1        0.0621
     36 H          -6.9632    2.9116    0.1257 H       1  UNL1        0.0575
     37 H          -4.3266    3.4238    0.2000 H       1  UNL1        0.0356
     38 H          -4.8279    2.6303    1.7280 H       1  UNL1        0.0356
     39 H          -2.3054    2.7178    1.8225 H       1  UNL1        0.0624
     40 H           0.0436    2.3281    2.2388 H       1  UNL1        0.0624
     41 H           2.0812    1.2092    1.9087 H       1  UNL1        0.0630
     42 H           7.0819   -1.6556    1.9571 H       1  UNL1        0.0699
     43 H           8.2080    1.0139    0.7237 H       1  UNL1        0.0621
     44 H           6.9789    2.9594   -0.5096 H       1  UNL1        0.0575
     45 H           4.6877    1.7364   -1.2623 H       1  UNL1        0.0356
     46 H           4.4315    2.5722    0.3090 H       1  UNL1        0.0356
     47 H           3.4463   -2.3000   -1.4839 H       1  UNL1        0.0813
     48 H           1.5567   -3.0011   -2.9750 H       1  UNL1        0.1648
     49 H          -0.6316   -1.9401   -2.4541 H       1  UNL1        0.0813
     50 H          -1.8266   -3.0385   -0.7347 H       1  UNL1        0.0581
@<TRIPOS>BOND
     1     1     2    1
     2     2     3    2
     3     3     4   ar
     4     4     5    1
     5     5     6    2
     6     6     7    1
     7     7     8    1
     8     8     9   ar
     9     9    10   ar
    10    10    11   ar
    11    11    12   ar
    12    12    13   ar
    13    13    14   ar
    14    14    15    1
    15    15    16   ar
    16    16    17   ar
    17    17    18   ar
    18    18    19    1
    19    19    20    2
    20    20    21    1
    21    21    22    1
    22    14    23   ar
    23    23    24   ar
    24    24    25   ar
    25    25    26   ar
    26    26    27   ar
    27    27    28   ar
    28    28    29   ar
    29    29    30   ar
    30    30    31    2
    31    31     1    1
    32    30     3   ar
    33     8     4   ar
    34    29     9   ar
    35    28    12   ar
    36    22    15   ar
    37    27    23   ar
    38    22    18   ar
    39     1    32    1
    40     1    33    1
    41     2    34    1
    42     5    35    1
    43     6    36    1
    44     7    37    1
    45     7    38    1
    46    10    39    1
    47    11    40    1
    48    13    41    1
    49    17    42    1
    50    19    43    1
    51    20    44    1
    52    21    45    1
    53    21    46    1
    54    24    47    1
    55    25    48    1
    56    26    49    1
    57    31    50    1
