@<TRIPOS>MOLECULE
*****
 51 58 0 0 0
SMALL
GASTEIGER

@<TRIPOS>ATOM
      1 C          -3.3967   -2.1993   -2.1964 C.3     1  UNL1       -0.0148
      2 C          -4.5116   -1.3806   -1.6230 C.2     1  UNL1       -0.0720
      3 C          -3.9990   -0.4458   -0.8101 C.ar    1  UNL1       -0.0138
      4 C          -4.6573    0.6685   -0.1951 C.ar    1  UNL1       -0.0138
      5 C          -6.0486    1.0332   -0.0756 C.2     1  UNL1       -0.0574
      6 C          -6.1481    2.2127    0.5560 C.2     1  UNL1       -0.0791
      7 C          -4.7757    2.7233    0.9016 C.3     1  UNL1       -0.0080
      8 C          -3.8970    1.6314    0.3660 C.ar    1  UNL1       -0.0282
      9 C          -2.4211    1.5635    0.4411 C.ar    1  UNL1       -0.0126
     10 C          -1.6964    2.6676    0.8737 C.ar    1  UNL1       -0.0531
     11 C          -0.3112    2.5967    0.9397 C.ar    1  UNL1       -0.0534
     12 C           0.3684    1.3909    0.7182 C.ar    1  UNL1       -0.0161
     13 C           1.7608    1.4017    0.8131 C.ar    1  UNL1       -0.0451
     14 C           2.5173    0.2342    0.6847 C.ar    1  UNL1       -0.0010
     15 C           3.9686    0.3643    0.7160 C.ar    1  UNL1        0.0438
     16 S           4.8680    0.6572    2.1661 S.2     1  UNL1       -0.0939
     17 C           6.4001    0.6723    1.3361 C.ar    1  UNL1       -0.0145
     18 C           6.1563    0.4638    0.0259 C.ar    1  UNL1        0.0073
     19 C           6.8192    0.3446   -1.2203 C.ar    1  UNL1       -0.0361
     20 C           5.8253    0.1170   -2.1977 C.ar    1  UNL1        0.0028
     21 N           4.5493    0.0847   -1.6372 N.ar    1  UNL1       -0.3598
     22 C           4.8338    0.2972   -0.3186 C.ar    1  UNL1        0.0614
     23 C           1.8633   -1.0117    0.5750 C.ar    1  UNL1       -0.0090
     24 C           2.5827   -2.2350    0.5855 C.ar    1  UNL1       -0.0534
     25 C           1.9429   -3.4704    0.5997 C.ar    1  UNL1       -0.0611
     26 C           0.5639   -3.5120    0.6372 C.ar    1  UNL1       -0.0611
     27 C          -0.1620   -2.3192    0.6058 C.ar    1  UNL1       -0.0534
     28 C           0.4409   -1.0404    0.4990 C.ar    1  UNL1       -0.0090
     29 C          -0.3268    0.1947    0.4142 C.ar    1  UNL1       -0.0019
     30 C          -1.7249    0.3593    0.0891 C.ar    1  UNL1       -0.0019
     31 C          -2.5444   -0.5964   -0.7201 C.ar    1  UNL1       -0.0129
     32 C          -2.1825   -1.5605   -1.5868 C.2     1  UNL1       -0.0719
     33 H          -3.4811   -3.2503   -1.9055 H       1  UNL1        0.0350
     34 H          -3.3737   -2.1183   -3.2871 H       1  UNL1        0.0350
     35 H          -5.5479   -1.4796   -1.9063 H       1  UNL1        0.0581
     36 H          -6.8674    0.4357   -0.4449 H       1  UNL1        0.0621
     37 H          -7.0683    2.7288    0.7835 H       1  UNL1        0.0575
     38 H          -4.5870    3.6796    0.4038 H       1  UNL1        0.0356
     39 H          -4.6669    2.8369    1.9846 H       1  UNL1        0.0356
     40 H          -2.1848    3.6065    1.1175 H       1  UNL1        0.0624
     41 H           0.2369    3.4973    1.2135 H       1  UNL1        0.0624
     42 H           2.2824    2.3444    0.9815 H       1  UNL1        0.0630
     43 H           7.3282    0.8304    1.8655 H       1  UNL1        0.0700
     44 H           7.8816    0.4112   -1.4136 H       1  UNL1        0.0639
     45 H           5.9300   -0.0266   -3.2656 H       1  UNL1        0.0807
     46 H           3.6391   -0.0593   -2.0594 H       1  UNL1        0.1654
     47 H           3.6711   -2.2397    0.6234 H       1  UNL1        0.0624
     48 H           2.5241   -4.3878    0.6266 H       1  UNL1        0.0618
     49 H           0.0434   -4.4634    0.7061 H       1  UNL1        0.0618
     50 H          -1.2419   -2.4057    0.7081 H       1  UNL1        0.0624
     51 H          -1.1754   -1.8475   -1.8468 H       1  UNL1        0.0581
@<TRIPOS>BOND
     1     1     2    1
     2     2     3    2
     3     3     4   ar
     4     4     5    1
     5     5     6    2
     6     6     7    1
     7     7     8    1
     8     8     9   ar
     9     9    10   ar
    10    10    11   ar
    11    11    12   ar
    12    12    13   ar
    13    13    14   ar
    14    14    15    1
    15    15    16   ar
    16    16    17   ar
    17    17    18   ar
    18    18    19   ar
    19    19    20   ar
    20    20    21   ar
    21    21    22   ar
    22    14    23   ar
    23    23    24   ar
    24    24    25   ar
    25    25    26   ar
    26    26    27   ar
    27    27    28   ar
    28    28    29   ar
    29    29    30   ar
    30    30    31   ar
    31    31    32    2
    32    32     1    1
    33    31     3   ar
    34     8     4   ar
    35    30     9   ar
    36    29    12   ar
    37    22    15   ar
    38    28    23   ar
    39    22    18   ar
    40     1    33    1
    41     1    34    1
    42     2    35    1
    43     5    36    1
    44     6    37    1
    45     7    38    1
    46     7    39    1
    47    10    40    1
    48    11    41    1
    49    13    42    1
    50    17    43    1
    51    19    44    1
    52    20    45    1
    53    21    46    1
    54    24    47    1
    55    25    48    1
    56    26    49    1
    57    27    50    1
    58    32    51    1
