@<TRIPOS>MOLECULE
*****
 40 46 0 0 0
SMALL
GASTEIGER

@<TRIPOS>ATOM
      1 C          -0.6876   -0.5090    4.2270 C.3     1  UNL1       -0.0148
      2 C           0.3532   -0.4272    3.1479 C.2     1  UNL1       -0.0718
      3 C          -0.2526   -0.2889    1.9625 C.ar    1  UNL1       -0.0084
      4 C           0.2616   -0.1693    0.6567 C.ar    1  UNL1        0.0522
      5 C           1.5313   -0.1448    0.0744 C.ar    1  UNL1        0.0939
      6 N           2.8742   -0.2069    0.3170 N.ar    1  UNL1       -0.3507
      7 C           3.5436   -0.1013   -0.8929 C.ar    1  UNL1        0.0587
      8 C           2.6115    0.0297   -1.9184 C.ar    1  UNL1        0.0072
      9 C           1.3703   -0.0031   -1.2628 C.ar    1  UNL1        0.1544
     10 O           0.0501    0.0685   -1.6043 O.2     1  UNL1       -0.4526
     11 C          -0.5990   -0.0358   -0.4119 C.ar    1  UNL1        0.1466
     12 C          -2.0441   -0.0060   -0.3107 C.ar    1  UNL1        0.0348
     13 C          -2.9827    0.1248   -1.3323 C.ar    1  UNL1        0.0107
     14 C          -2.7820    0.2579   -2.6839 C.ar    1  UNL1        0.0101
     15 N          -4.0232    0.3533   -3.2781 N.ar    1  UNL1       -0.3659
     16 C          -5.0174    0.2832   -2.3246 C.ar    1  UNL1        0.0094
     17 C          -4.3943    0.1415   -1.1120 C.ar    1  UNL1        0.0001
     18 C          -5.0290    0.0327    0.1203 C.ar    1  UNL1       -0.0520
     19 C          -4.0901   -0.1016    1.1751 C.ar    1  UNL1       -0.0527
     20 C          -2.6610   -0.1224    0.9917 C.ar    1  UNL1       -0.0063
     21 C          -1.7172   -0.2669    2.1449 C.ar    1  UNL1       -0.0132
     22 C          -1.9755   -0.3944    3.4581 C.2     1  UNL1       -0.0719
     23 C           4.9792   -0.1317   -0.9835 C.ar    1  UNL1        0.0550
     24 C           5.7673   -0.0366   -2.1176 C.ar    1  UNL1        0.0439
     25 N           7.1358   -0.0948   -1.9206 N.ar    1  UNL1       -0.2550
     26 C           7.3757   -0.2338   -0.6369 C.ar    1  UNL1        0.0653
     27 S           6.0048   -0.3015    0.3882 S.2     1  UNL1       -0.0740
     28 H          -0.6307   -1.4644    4.7568 H       1  UNL1        0.0350
     29 H          -0.5813    0.3146    4.9391 H       1  UNL1        0.0350
     30 H           1.4160   -0.4746    3.3220 H       1  UNL1        0.0581
     31 H           3.2823   -0.3126    1.2367 H       1  UNL1        0.1660
     32 H           2.7952    0.1333   -2.9775 H       1  UNL1        0.0676
     33 H          -1.8832    0.2945   -3.2846 H       1  UNL1        0.0813
     34 H          -4.1790    0.4596   -4.2720 H       1  UNL1        0.1648
     35 H          -6.0592    0.3412   -2.6081 H       1  UNL1        0.0813
     36 H          -6.0982    0.0463    0.2773 H       1  UNL1        0.0624
     37 H          -4.4927   -0.1937    2.1828 H       1  UNL1        0.0624
     38 H          -2.9477   -0.4152    3.9249 H       1  UNL1        0.0581
     39 H           5.3944    0.0779   -3.1282 H       1  UNL1        0.0842
     40 H           8.3812   -0.3023   -0.2426 H       1  UNL1        0.0907
@<TRIPOS>BOND
     1     1     2    1
     2     2     3    2
     3     3     4   ar
     4     4     5   ar
     5     5     6   ar
     6     6     7   ar
     7     7     8   ar
     8     8     9   ar
     9     9    10   ar
    10    10    11   ar
    11    11    12   ar
    12    12    13   ar
    13    13    14   ar
    14    14    15   ar
    15    15    16   ar
    16    16    17   ar
    17    17    18   ar
    18    18    19   ar
    19    19    20   ar
    20    20    21   ar
    21    21    22    2
    22     7    23    1
    23    23    24   ar
    24    24    25   ar
    25    25    26   ar
    26    26    27   ar
    27    22     1    1
    28    27    23   ar
    29    21     3   ar
    30    11     4   ar
    31    20    12   ar
    32     9     5   ar
    33    17    13   ar
    34     1    28    1
    35     1    29    1
    36     2    30    1
    37     6    31    1
    38     8    32    1
    39    14    33    1
    40    15    34    1
    41    16    35    1
    42    18    36    1
    43    19    37    1
    44    22    38    1
    45    24    39    1
    46    26    40    1
