@<TRIPOS>MOLECULE
*****
 42 48 0 0 0
SMALL
GASTEIGER

@<TRIPOS>ATOM
      1 C          -1.8264   -2.9910   -2.6138 C.3     1  UNL1       -0.0148
      2 C          -0.6407   -2.3065   -1.9984 C.2     1  UNL1       -0.0718
      3 C          -1.0685   -1.3404   -1.1770 C.ar    1  UNL1       -0.0084
      4 C          -0.3719   -0.4212   -0.3707 C.ar    1  UNL1        0.0522
      5 C           0.9701   -0.1415   -0.0999 C.ar    1  UNL1        0.0939
      6 N           2.2635   -0.4924   -0.3726 N.ar    1  UNL1       -0.3513
      7 C           3.1032    0.3340    0.3573 C.ar    1  UNL1        0.0468
      8 C           2.3313    1.2211    1.1027 C.ar    1  UNL1        0.0064
      9 C           1.0076    0.8836    0.7827 C.ar    1  UNL1        0.1543
     10 O          -0.2480    1.3040    1.1160 O.2     1  UNL1       -0.4526
     11 C          -1.0680    0.4889    0.3965 C.ar    1  UNL1        0.1466
     12 C          -2.5165    0.5962    0.4561 C.ar    1  UNL1        0.0339
     13 C          -3.2904    1.4916    1.2089 C.ar    1  UNL1        0.0004
     14 C          -2.8118    2.4636    2.0559 C.ar    1  UNL1       -0.0159
     15 S          -4.0829    3.3570    2.7958 S.2     1  UNL1       -0.1039
     16 C          -5.2934    2.4475    1.9862 C.ar    1  UNL1       -0.0166
     17 C          -4.7364    1.4900    1.1751 C.ar    1  UNL1       -0.0102
     18 C          -5.5179    0.6216    0.4105 C.ar    1  UNL1       -0.0529
     19 C          -4.7415   -0.2833   -0.3504 C.ar    1  UNL1       -0.0527
     20 C          -3.3079   -0.3132   -0.3439 C.ar    1  UNL1       -0.0063
     21 C          -2.5423   -1.2972   -1.1731 C.ar    1  UNL1       -0.0132
     22 C          -2.9886   -2.2539   -2.0060 C.2     1  UNL1       -0.0719
     23 C           4.5156    0.1945    0.2690 C.2     1  UNL1       -0.0202
     24 C           5.1493   -0.7166   -0.4947 C.2     1  UNL1       -0.0566
     25 C           6.5779   -0.5858   -0.3515 C.2     1  UNL1       -0.0650
     26 C           6.8512    0.4076    0.5026 C.2     1  UNL1       -0.0796
     27 C           5.5704    1.0146    0.9925 C.3     1  UNL1       -0.0072
     28 H          -1.8513   -4.0515   -2.3464 H       1  UNL1        0.0350
     29 H          -1.8207   -2.8850   -3.7026 H       1  UNL1        0.0350
     30 H           0.3857   -2.5674   -2.1996 H       1  UNL1        0.0581
     31 H           2.5142   -1.2374   -1.0082 H       1  UNL1        0.1660
     32 H           2.6770    1.9929    1.7743 H       1  UNL1        0.0676
     33 H          -1.7904    2.7190    2.2986 H       1  UNL1        0.0700
     34 H          -6.3377    2.6714    2.1552 H       1  UNL1        0.0699
     35 H          -6.6002    0.6206    0.3852 H       1  UNL1        0.0624
     36 H          -5.2833   -0.9935   -0.9736 H       1  UNL1        0.0624
     37 H          -4.0176   -2.4872   -2.2298 H       1  UNL1        0.0581
     38 H           4.7134   -1.4623   -1.1404 H       1  UNL1        0.0621
     39 H           7.2992   -1.2044   -0.8637 H       1  UNL1        0.0615
     40 H           7.8365    0.7315    0.8009 H       1  UNL1        0.0575
     41 H           5.5090    2.0719    0.7161 H       1  UNL1        0.0356
     42 H           5.4789    0.9089    2.0782 H       1  UNL1        0.0356
@<TRIPOS>BOND
     1     1     2    1
     2     2     3    2
     3     3     4   ar
     4     4     5   ar
     5     5     6   ar
     6     6     7   ar
     7     7     8   ar
     8     8     9   ar
     9     9    10   ar
    10    10    11   ar
    11    11    12   ar
    12    12    13   ar
    13    13    14   ar
    14    14    15   ar
    15    15    16   ar
    16    16    17   ar
    17    17    18   ar
    18    18    19   ar
    19    19    20   ar
    20    20    21   ar
    21    21    22    2
    22     7    23    1
    23    23    24    2
    24    24    25    1
    25    25    26    2
    26    26    27    1
    27    22     1    1
    28    27    23    1
    29    21     3   ar
    30    11     4   ar
    31    20    12   ar
    32     9     5   ar
    33    17    13   ar
    34     1    28    1
    35     1    29    1
    36     2    30    1
    37     6    31    1
    38     8    32    1
    39    14    33    1
    40    16    34    1
    41    18    35    1
    42    19    36    1
    43    22    37    1
    44    24    38    1
    45    25    39    1
    46    26    40    1
    47    27    41    1
    48    27    42    1
