@<TRIPOS>MOLECULE
*****
 46 53 0 0 0
SMALL
GASTEIGER

@<TRIPOS>ATOM
      1 C          -2.1044    1.7314    3.7286 C.3     1  UNL1        0.0000
      2 C          -3.1536    1.2761    2.7590 C.2     1  UNL1        0.0000
      3 C          -2.5527    0.8539    1.6416 C.ar    1  UNL1        0.0000
      4 C          -3.0405    0.3123    0.4436 C.ar    1  UNL1        0.0000
      5 C          -4.3161   -0.0583   -0.0074 C.ar    1  UNL1        0.0000
      6 N          -5.6408   -0.0714    0.3271 N.ar    1  UNL1        0.0000
      7 C          -6.3249   -0.6667   -0.7069 C.ar    1  UNL1        0.0000
      8 C          -5.4426   -1.0479   -1.7007 C.ar    1  UNL1        0.0000
      9 C          -4.1706   -0.6460   -1.2250 C.ar    1  UNL1        0.0000
     10 N          -2.8365   -0.6629   -1.5547 N.ar    1  UNL1        0.0000
     11 C          -2.1408   -0.0156   -0.5614 C.ar    1  UNL1        0.0000
     12 C          -0.7018    0.1695   -0.5487 C.ar    1  UNL1        0.0000
     13 C          -0.1714    0.6049    0.6541 C.ar    1  UNL1        0.0000
     14 C           1.2938    0.6721    0.8448 C.ar    1  UNL1        0.0000
     15 C           2.2109    0.3844   -0.1032 C.ar    1  UNL1        0.0000
     16 C           3.5895    0.4417    0.2683 C.ar    1  UNL1        0.0000
     17 S           4.3859    1.9512    0.5901 S.2     1  UNL1        0.0000
     18 C           5.9064    1.2061    0.9113 C.ar    1  UNL1        0.0000
     19 C           5.8116   -0.1475    0.7700 C.ar    1  UNL1        0.0000
     20 S           7.0421   -1.4475    0.9636 S.2     1  UNL1        0.0000
     21 C           5.7299   -2.5413    0.5407 C.ar    1  UNL1        0.0000
     22 C           4.4882   -1.9487    0.2828 C.ar    1  UNL1        0.0000
     23 C           4.5221   -0.5353    0.4135 C.ar    1  UNL1        0.0000
     24 C           1.7084    0.0224   -1.4243 C.ar    1  UNL1        0.0000
     25 C           2.4830   -0.1925   -2.5083 C.2     1  UNL1        0.0000
     26 SI          1.4636   -0.4851   -4.0286 Si      1  UNL1        0.0000
     27 C          -0.0630   -0.2588   -2.9697 C.2     1  UNL1        0.0000
     28 C           0.2415   -0.0529   -1.6688 C.ar    1  UNL1        0.0000
     29 C          -1.0978    0.9760    1.7570 C.ar    1  UNL1        0.0000
     30 C          -0.8271    1.4909    2.9707 C.2     1  UNL1        0.0000
     31 H          -2.2242    2.7917    3.9696 H       1  UNL1        0.0000
     32 H          -2.1327    1.1386    4.6476 H       1  UNL1        0.0000
     33 H          -4.2138    1.2883    2.9502 H       1  UNL1        0.0000
     34 H          -6.0087    0.3030    1.1921 H       1  UNL1        0.0000
     35 H          -7.3998   -0.7762   -0.6458 H       1  UNL1        0.0000
     36 H          -5.6871   -1.5455   -2.6286 H       1  UNL1        0.0000
     37 H          -2.4832   -1.1217   -2.3810 H       1  UNL1        0.0000
     38 H           1.6298    0.9367    1.8436 H       1  UNL1        0.0000
     39 H           6.7850    1.7756    1.1806 H       1  UNL1        0.0000
     40 H           5.9617   -3.5972    0.5078 H       1  UNL1        0.0000
     41 H           3.6106   -2.5254    0.0154 H       1  UNL1        0.0000
     42 H           3.5600   -0.1547   -2.5595 H       1  UNL1        0.0000
     43 H           1.5786   -1.8714   -4.5412 H       1  UNL1        0.0000
     44 H           1.6078    0.5876   -5.0410 H       1  UNL1        0.0000
     45 H          -1.0226   -0.2687   -3.4511 H       1  UNL1        0.0000
     46 H           0.1463    1.7246    3.3717 H       1  UNL1        0.0000
@<TRIPOS>BOND
     1     1     2    1
     2     2     3    2
     3     3     4   ar
     4     4     5   ar
     5     5     6   ar
     6     6     7   ar
     7     7     8   ar
     8     8     9   ar
     9     9    10   ar
    10    10    11   ar
    11    11    12   ar
    12    12    13   ar
    13    13    14   ar
    14    14    15   ar
    15    15    16    1
    16    16    17   ar
    17    17    18   ar
    18    18    19   ar
    19    19    20   ar
    20    20    21   ar
    21    21    22   ar
    22    22    23   ar
    23    15    24   ar
    24    24    25    2
    25    25    26    1
    26    26    27    1
    27    27    28    2
    28    13    29   ar
    29    29    30    2
    30    30     1    1
    31    29     3   ar
    32    11     4   ar
    33    28    12   ar
    34     9     5   ar
    35    23    16   ar
    36    28    24   ar
    37    23    19   ar
    38     1    31    1
    39     1    32    1
    40     2    33    1
    41     6    34    1
    42     7    35    1
    43     8    36    1
    44    10    37    1
    45    14    38    1
    46    18    39    1
    47    21    40    1
    48    22    41    1
    49    25    42    1
    50    26    43    1
    51    26    44    1
    52    27    45    1
    53    30    46    1
