@<TRIPOS>MOLECULE
*****
 37 42 0 0 0
SMALL
GASTEIGER

@<TRIPOS>ATOM
      1 C          -1.1039   -3.7146    0.2230 C.3     1  UNL1       -0.0148
      2 C          -2.2298   -2.7204    0.2144 C.2     1  UNL1       -0.0718
      3 C          -1.7240   -1.4814    0.2161 C.ar    1  UNL1       -0.0100
      4 C          -2.3391   -0.2095    0.2090 C.ar    1  UNL1        0.0331
      5 C          -3.6737    0.2326    0.1988 C.ar    1  UNL1        0.0727
      6 N          -4.9717   -0.1955    0.1911 N.ar    1  UNL1       -0.3589
      7 C          -5.7785    0.9182    0.1827 C.ar    1  UNL1        0.0042
      8 C          -5.0055    2.0644    0.1845 C.ar    1  UNL1       -0.0204
      9 C          -3.6686    1.5974    0.1948 C.ar    1  UNL1        0.0653
     10 N          -2.3684    2.0401    0.2019 N.ar    1  UNL1       -0.3512
     11 C          -1.5560    0.9350    0.2110 C.ar    1  UNL1        0.0758
     12 C          -0.0939    0.9305    0.2208 C.ar    1  UNL1        0.0955
     13 N           0.5128    2.1371    0.2228 N.ar    1  UNL1       -0.2523
     14 C           1.8687    2.1042    0.2312 C.ar    1  UNL1        0.0365
     15 C           2.6460    0.9392    0.2375 C.ar    1  UNL1        0.0074
     16 C           1.9686   -0.2899    0.2405 C.ar    1  UNL1       -0.0423
     17 C           0.5748   -0.3147    0.2297 C.ar    1  UNL1        0.0104
     18 C          -0.2526   -1.5445    0.2263 C.ar    1  UNL1       -0.0118
     19 C           0.1180   -2.8361    0.2303 C.2     1  UNL1       -0.0719
     20 C           4.1128    0.9787    0.2631 C.ar    1  UNL1        0.0208
     21 C           4.9850    0.2024    1.0065 C.ar    1  UNL1       -0.0469
     22 C           6.3531    0.5138    0.7547 C.ar    1  UNL1       -0.0541
     23 C           6.4880    1.5138   -0.1802 C.ar    1  UNL1       -0.0237
     24 S           4.9751    2.0688   -0.7471 S.2     1  UNL1       -0.0966
     25 H          -1.1407   -4.3427    1.1180 H       1  UNL1        0.0350
     26 H          -1.1287   -4.3445   -0.6711 H       1  UNL1        0.0350
     27 H          -3.2751   -2.9829    0.2070 H       1  UNL1        0.0581
     28 H          -5.2457   -1.1694    0.1917 H       1  UNL1        0.1654
     29 H          -6.8542    0.8010    0.1757 H       1  UNL1        0.0807
     30 H          -5.3589    3.0859    0.1791 H       1  UNL1        0.0653
     31 H          -2.0782    3.0091    0.2002 H       1  UNL1        0.1660
     32 H           2.3316    3.0883    0.2459 H       1  UNL1        0.0836
     33 H           2.5298   -1.2194    0.2386 H       1  UNL1        0.0631
     34 H           1.1272   -3.2170    0.2363 H       1  UNL1        0.0581
     35 H           4.6585   -0.5528    1.7118 H       1  UNL1        0.0629
     36 H           7.1939    0.0285    1.2353 H       1  UNL1        0.0623
     37 H           7.4031    1.9464   -0.5610 H       1  UNL1        0.0693
@<TRIPOS>BOND
     1     1     2    1
     2     2     3    2
     3     3     4   ar
     4     4     5   ar
     5     5     6   ar
     6     6     7   ar
     7     7     8   ar
     8     8     9   ar
     9     9    10   ar
    10    10    11   ar
    11    11    12   ar
    12    12    13   ar
    13    13    14   ar
    14    14    15   ar
    15    15    16   ar
    16    16    17   ar
    17    17    18   ar
    18    18    19    2
    19    15    20    1
    20    20    21   ar
    21    21    22   ar
    22    22    23   ar
    23    23    24   ar
    24    19     1    1
    25    24    20   ar
    26    18     3   ar
    27    11     4   ar
    28    17    12   ar
    29     9     5   ar
    30     1    25    1
    31     1    26    1
    32     2    27    1
    33     6    28    1
    34     7    29    1
    35     8    30    1
    36    10    31    1
    37    14    32    1
    38    16    33    1
    39    19    34    1
    40    21    35    1
    41    22    36    1
    42    23    37    1
