@<TRIPOS>MOLECULE
*****
 42 48 0 0 0
SMALL
GASTEIGER

@<TRIPOS>ATOM
      1 SI          2.8043   -1.6173    3.3230 Si      1  UNL1        0.0000
      2 C           3.7384   -1.0593    1.8105 C.2     1  UNL1        0.0000
      3 C           2.9072   -0.6262    0.8383 C.ar    1  UNL1        0.0000
      4 C           3.3250   -0.1092   -0.4687 C.ar    1  UNL1        0.0000
      5 C           2.3674    0.3589   -1.3005 C.ar    1  UNL1        0.0000
      6 C           0.9209    0.3345   -0.9801 C.ar    1  UNL1        0.0000
      7 C           0.0195    0.8314   -1.9359 C.ar    1  UNL1        0.0000
      8 C          -1.3484    0.7990   -1.6360 C.ar    1  UNL1        0.0000
      9 N          -2.4265    1.2244   -2.3938 N.ar    1  UNL1        0.0000
     10 C          -3.6160    1.0031   -1.7357 C.ar    1  UNL1        0.0000
     11 C          -4.9644    1.2565   -2.1113 C.ar    1  UNL1        0.0000
     12 C          -6.0328    0.9201   -1.2497 C.ar    1  UNL1        0.0000
     13 C          -5.5931    0.3460   -0.0638 C.ar    1  UNL1        0.0000
     14 C          -6.3858   -0.0987    0.9655 C.ar    1  UNL1        0.0000
     15 O          -5.6056   -0.6161    1.9732 O.2     1  UNL1        0.0000
     16 C          -4.2923   -0.4996    1.5831 C.ar    1  UNL1        0.0000
     17 C          -4.2815    0.0785    0.3540 C.ar    1  UNL1        0.0000
     18 C          -3.2303    0.4284   -0.5353 C.ar    1  UNL1        0.0000
     19 C          -1.8409    0.2902   -0.4306 C.ar    1  UNL1        0.0000
     20 C          -0.9264   -0.2038    0.5198 C.ar    1  UNL1        0.0000
     21 C           0.4539   -0.1805    0.2486 C.ar    1  UNL1        0.0000
     22 C           1.4687   -0.6738    1.2078 C.ar    1  UNL1        0.0000
     23 C           1.2230   -1.1587    2.4421 C.2     1  UNL1        0.0000
     24 C           4.6734   -0.0277   -0.9565 C.ar    1  UNL1        0.0000
     25 N           5.3116    1.0725   -1.3122 N.ar    1  UNL1        0.0000
     26 C           6.5925    0.7814   -1.7313 C.ar    1  UNL1        0.0000
     27 C           6.9040   -0.5591   -1.7944 C.ar    1  UNL1        0.0000
     28 S           5.5795   -1.4817   -1.2361 S.2     1  UNL1        0.0000
     29 H           2.9194   -3.0752    3.5559 H       1  UNL1        0.0000
     30 H           3.0645   -0.7592    4.5019 H       1  UNL1        0.0000
     31 H           4.8159   -1.0965    1.7911 H       1  UNL1        0.0000
     32 H           2.6407    0.7732   -2.2671 H       1  UNL1        0.0000
     33 H           0.3683    1.2284   -2.8836 H       1  UNL1        0.0000
     34 H          -2.3488    1.6309   -3.3122 H       1  UNL1        0.0000
     35 H          -5.1837    1.7051   -3.0776 H       1  UNL1        0.0000
     36 H          -7.0688    1.0940   -1.5086 H       1  UNL1        0.0000
     37 H          -7.4508   -0.1312    1.1461 H       1  UNL1        0.0000
     38 H          -3.5598   -0.8734    2.2824 H       1  UNL1        0.0000
     39 H          -1.2997   -0.5966    1.4567 H       1  UNL1        0.0000
     40 H           0.2737   -1.2798    2.9358 H       1  UNL1        0.0000
     41 H           7.2574    1.5909   -2.0083 H       1  UNL1        0.0000
     42 H           7.8265   -1.0238   -2.1114 H       1  UNL1        0.0000
@<TRIPOS>BOND
     1     1     2    1
     2     2     3    2
     3     3     4   ar
     4     4     5   ar
     5     5     6   ar
     6     6     7   ar
     7     7     8   ar
     8     8     9   ar
     9     9    10   ar
    10    10    11   ar
    11    11    12   ar
    12    12    13   ar
    13    13    14   ar
    14    14    15   ar
    15    15    16   ar
    16    16    17   ar
    17    17    18   ar
    18    18    19   ar
    19    19    20   ar
    20    20    21   ar
    21    21    22   ar
    22    22    23    2
    23     4    24    1
    24    24    25   ar
    25    25    26   ar
    26    26    27   ar
    27    27    28   ar
    28    23     1    1
    29    28    24   ar
    30    22     3   ar
    31    21     6   ar
    32    19     8   ar
    33    18    10   ar
    34    17    13   ar
    35     1    29    1
    36     1    30    1
    37     2    31    1
    38     5    32    1
    39     7    33    1
    40     9    34    1
    41    11    35    1
    42    12    36    1
    43    14    37    1
    44    16    38    1
    45    20    39    1
    46    23    40    1
    47    26    41    1
    48    27    42    1
