@<TRIPOS>MOLECULE
*****
 38 43 0 0 0
SMALL
GASTEIGER

@<TRIPOS>ATOM
      1 C           2.2153    3.5949   -0.2401 C.3     1  UNL1       -0.0148
      2 C           0.9709    2.7602   -0.1467 C.2     1  UNL1       -0.0718
      3 C           1.3123    1.4669   -0.1001 C.ar    1  UNL1       -0.0102
      4 C           0.5273    0.2964   -0.0107 C.ar    1  UNL1        0.0323
      5 C          -0.8232   -0.0052    0.0621 C.ar    1  UNL1        0.0105
      6 C          -2.1756    0.5908    0.0923 C.3     1  UNL1        0.0054
      7 C          -3.0258   -0.6921    0.1899 C.2     1  UNL1        0.0047
      8 C          -2.2634   -1.8160    0.2102 C.2     1  UNL1       -0.0120
      9 C          -0.9271   -1.3803    0.1318 C.ar    1  UNL1        0.1330
     10 O           0.2953   -1.9696    0.1068 O.2     1  UNL1       -0.4545
     11 C           1.1790   -0.9286    0.0193 C.ar    1  UNL1        0.1442
     12 C           2.6197   -1.1569   -0.0322 C.ar    1  UNL1        0.0256
     13 C           3.1887   -2.4313    0.0036 C.ar    1  UNL1       -0.0505
     14 C           4.5761   -2.5701   -0.0498 C.ar    1  UNL1       -0.0611
     15 C           5.3945   -1.4414   -0.1388 C.ar    1  UNL1       -0.0611
     16 C           4.8365   -0.1597   -0.1754 C.ar    1  UNL1       -0.0533
     17 C           3.4487    0.0015   -0.1230 C.ar    1  UNL1       -0.0069
     18 C           2.7778    1.3310   -0.1571 C.ar    1  UNL1       -0.0133
     19 C           3.3102    2.5627   -0.2385 C.2     1  UNL1       -0.0719
     20 C          -4.4788   -0.6182    0.2493 C.ar    1  UNL1        0.1595
     21 N          -5.1546   -1.7665    0.3329 N.ar    1  UNL1       -0.2163
     22 C          -6.4761   -1.6247    0.3834 C.ar    1  UNL1        0.1200
     23 N          -7.1416   -0.4731    0.3576 N.ar    1  UNL1       -0.2241
     24 C          -6.3587    0.5989    0.2729 C.ar    1  UNL1        0.1200
     25 N          -5.0290    0.5970    0.2154 N.ar    1  UNL1       -0.2163
     26 H           2.3058    4.2640    0.6206 H       1  UNL1        0.0350
     27 H           2.2286    4.1793   -1.1648 H       1  UNL1        0.0350
     28 H          -0.0321    3.1557   -0.1221 H       1  UNL1        0.0581
     29 H          -2.3915    1.1443   -0.8266 H       1  UNL1        0.0364
     30 H          -2.3138    1.2295    0.9700 H       1  UNL1        0.0364
     31 H          -2.5889   -2.8426    0.2730 H       1  UNL1        0.0658
     32 H           2.5581   -3.3140    0.0727 H       1  UNL1        0.0625
     33 H           5.0209   -3.5618   -0.0220 H       1  UNL1        0.0618
     34 H           6.4747   -1.5608   -0.1798 H       1  UNL1        0.0618
     35 H           5.4969    0.6993   -0.2447 H       1  UNL1        0.0624
     36 H           4.3592    2.8075   -0.2955 H       1  UNL1        0.0581
     37 H          -7.0656   -2.5327    0.4519 H       1  UNL1        0.1048
     38 H          -6.8505    1.5655    0.2483 H       1  UNL1        0.1048
@<TRIPOS>BOND
     1     1     2    1
     2     2     3    2
     3     3     4   ar
     4     4     5   ar
     5     5     6    1
     6     6     7    1
     7     7     8    2
     8     8     9    1
     9     9    10   ar
    10    10    11   ar
    11    11    12   ar
    12    12    13   ar
    13    13    14   ar
    14    14    15   ar
    15    15    16   ar
    16    16    17   ar
    17    17    18   ar
    18    18    19    2
    19     7    20    1
    20    20    21   ar
    21    21    22   ar
    22    22    23   ar
    23    23    24   ar
    24    24    25   ar
    25    19     1    1
    26    25    20   ar
    27    18     3   ar
    28    11     4   ar
    29    17    12   ar
    30     9     5   ar
    31     1    26    1
    32     1    27    1
    33     2    28    1
    34     6    29    1
    35     6    30    1
    36     8    31    1
    37    13    32    1
    38    14    33    1
    39    15    34    1
    40    16    35    1
    41    19    36    1
    42    22    37    1
    43    24    38    1
