@<TRIPOS>MOLECULE
*****
 46 52 0 0 0
SMALL
GASTEIGER

@<TRIPOS>ATOM
      1 C          -1.5941   -4.0675    0.3859 C.3     1  UNL1       -0.0148
      2 C          -0.4486   -3.1234    0.1814 C.2     1  UNL1       -0.0719
      3 C          -0.9042   -1.8627    0.1848 C.ar    1  UNL1       -0.0127
      4 C          -0.2199   -0.6257    0.0715 C.ar    1  UNL1        0.0013
      5 C           1.1642   -0.3889    0.0127 C.ar    1  UNL1       -0.0205
      6 C           2.4360   -1.1569   -0.0241 C.3     1  UNL1       -0.0001
      7 C           3.4678   -0.0023   -0.0174 C.2     1  UNL1       -0.0334
      8 C           2.8431    1.2031    0.0252 C.2     1  UNL1       -0.0436
      9 C           1.4576    0.9453    0.0464 C.ar    1  UNL1        0.0171
     10 S           0.1121    1.9221    0.1615 S.2     1  UNL1       -0.0879
     11 C          -0.9640    0.5660    0.0598 C.ar    1  UNL1        0.0290
     12 C          -2.4725    0.6402    0.1133 C.ar    1  UNL1        0.0047
     13 C          -3.2760    1.8256   -0.0722 C.ar    1  UNL1       -0.0091
     14 C          -2.8334    3.0905   -0.5498 C.ar    1  UNL1       -0.0534
     15 C          -3.6732    4.2050   -0.6650 C.ar    1  UNL1       -0.0611
     16 C          -5.0090    4.0995   -0.3257 C.ar    1  UNL1       -0.0612
     17 C          -5.5045    2.8720    0.0964 C.ar    1  UNL1       -0.0540
     18 C          -4.6709    1.7449    0.2051 C.ar    1  UNL1       -0.0173
     19 C          -5.2569    0.5324    0.5741 C.ar    1  UNL1       -0.0534
     20 C          -4.5084   -0.6346    0.6369 C.ar    1  UNL1       -0.0528
     21 C          -3.1342   -0.6036    0.3929 C.ar    1  UNL1       -0.0088
     22 C          -2.3479   -1.8591    0.3864 C.ar    1  UNL1       -0.0134
     23 C          -2.7634   -3.1337    0.5048 C.2     1  UNL1       -0.0719
     24 C           4.9170   -0.2538   -0.0504 C.ar    1  UNL1       -0.0034
     25 C           5.8573    0.7835   -0.0490 C.ar    1  UNL1       -0.0514
     26 C           7.2239    0.5023   -0.0814 C.ar    1  UNL1       -0.0430
     27 C           7.6232   -0.8209   -0.1149 C.ar    1  UNL1        0.0276
     28 N           6.7614   -1.8563   -0.1180 N.ar    1  UNL1       -0.2627
     29 C           5.4402   -1.5478   -0.0859 C.ar    1  UNL1        0.0350
     30 H          -1.7106   -4.7381   -0.4704 H       1  UNL1        0.0350
     31 H          -1.4643   -4.6543    1.3000 H       1  UNL1        0.0350
     32 H           0.5760   -3.4371    0.0655 H       1  UNL1        0.0581
     33 H           2.5451   -1.7892    0.8626 H       1  UNL1        0.0362
     34 H           2.5132   -1.7522   -0.9393 H       1  UNL1        0.0362
     35 H           3.2811    2.1888    0.0451 H       1  UNL1        0.0632
     36 H          -1.8175    3.2366   -0.8945 H       1  UNL1        0.0624
     37 H          -3.2740    5.1472   -1.0315 H       1  UNL1        0.0618
     38 H          -5.6684    4.9583   -0.4108 H       1  UNL1        0.0618
     39 H          -6.5653    2.7981    0.3298 H       1  UNL1        0.0624
     40 H          -6.3240    0.4732    0.7808 H       1  UNL1        0.0624
     41 H          -5.0178   -1.5619    0.8809 H       1  UNL1        0.0624
     42 H          -3.7768   -3.4753    0.6445 H       1  UNL1        0.0581
     43 H           5.5492    1.8246   -0.0230 H       1  UNL1        0.0624
     44 H           7.9574    1.3009   -0.0804 H       1  UNL1        0.0633
     45 H           8.6751   -1.0902   -0.1408 H       1  UNL1        0.0829
     46 H           4.7987   -2.4244   -0.0901 H       1  UNL1        0.0835
@<TRIPOS>BOND
     1     1     2    1
     2     2     3    2
     3     3     4   ar
     4     4     5   ar
     5     5     6    1
     6     6     7    1
     7     7     8    2
     8     8     9    1
     9     9    10   ar
    10    10    11   ar
    11    11    12   ar
    12    12    13   ar
    13    13    14   ar
    14    14    15   ar
    15    15    16   ar
    16    16    17   ar
    17    17    18   ar
    18    18    19   ar
    19    19    20   ar
    20    20    21   ar
    21    21    22   ar
    22    22    23    2
    23     7    24    1
    24    24    25   ar
    25    25    26   ar
    26    26    27   ar
    27    27    28   ar
    28    28    29   ar
    29    23     1    1
    30    29    24   ar
    31    22     3   ar
    32    11     4   ar
    33    21    12   ar
    34     9     5   ar
    35    18    13   ar
    36     1    30    1
    37     1    31    1
    38     2    32    1
    39     6    33    1
    40     6    34    1
    41     8    35    1
    42    14    36    1
    43    15    37    1
    44    16    38    1
    45    17    39    1
    46    19    40    1
    47    20    41    1
    48    23    42    1
    49    25    43    1
    50    26    44    1
    51    27    45    1
    52    29    46    1
