@<TRIPOS>MOLECULE
*****
 41 47 0 0 0
SMALL
GASTEIGER

@<TRIPOS>ATOM
      1 C          -2.0441   -3.2114   -2.1879 C.3     1  UNL1       -0.0148
      2 C          -2.9919   -2.3087   -1.4550 C.2     1  UNL1       -0.0719
      3 C          -2.2952   -1.3506   -0.8312 C.ar    1  UNL1       -0.0118
      4 C          -2.7183   -0.2708   -0.0189 C.ar    1  UNL1        0.0118
      5 C          -3.9589    0.1779    0.4151 C.ar    1  UNL1       -0.0107
      6 C          -5.4149   -0.0683    0.3704 C.3     1  UNL1       -0.0065
      7 C          -5.9018    1.1080    1.2577 C.2     1  UNL1       -0.0777
      8 C          -4.8800    1.8747    1.7149 C.2     1  UNL1       -0.0417
      9 C          -3.7298    1.2825    1.1862 C.ar    1  UNL1        0.0435
     10 N          -2.4091    1.5594    1.2651 N.ar    1  UNL1       -0.3539
     11 C          -1.7524    0.5946    0.5140 C.ar    1  UNL1        0.0570
     12 C          -0.3053    0.4612    0.2873 C.ar    1  UNL1        0.0247
     13 C           0.6469    1.3153    0.8132 C.ar    1  UNL1        0.0380
     14 N           1.9775    1.1873    0.6007 N.ar    1  UNL1       -0.2536
     15 C           2.4128    0.1636   -0.1725 C.ar    1  UNL1        0.0817
     16 C           1.5273   -0.7488   -0.7461 C.ar    1  UNL1       -0.0267
     17 C           0.1549   -0.6068   -0.5200 C.ar    1  UNL1       -0.0050
     18 C          -0.8603   -1.5284   -1.0887 C.ar    1  UNL1       -0.0133
     19 C          -0.7022   -2.6068   -1.8760 C.2     1  UNL1       -0.0719
     20 C           3.8639    0.0933   -0.3545 C.ar    1  UNL1        0.0803
     21 S           4.6737   -1.1255   -1.3042 S.2     1  UNL1       -0.0908
     22 C           6.2599   -0.4935   -0.9938 C.ar    1  UNL1       -0.0128
     23 C           6.1156    0.5885   -0.2029 C.ar    1  UNL1        0.0278
     24 C           6.9029    1.5633    0.4265 C.ar    1  UNL1       -0.0156
     25 C           5.9881    2.3819    1.0979 C.ar    1  UNL1        0.0932
     26 O           4.6686    2.0025    0.9451 O.2     1  UNL1       -0.4617
     27 C           4.8232    0.9085    0.1445 C.ar    1  UNL1        0.1510
     28 H          -2.1086   -4.2375   -1.8140 H       1  UNL1        0.0350
     29 H          -2.2399   -3.1979   -3.2642 H       1  UNL1        0.0350
     30 H          -4.0638   -2.4250   -1.4413 H       1  UNL1        0.0581
     31 H          -5.8206    0.0185   -0.6410 H       1  UNL1        0.0356
     32 H          -5.6885   -1.0274    0.8180 H       1  UNL1        0.0356
     33 H          -6.9463    1.2779    1.4741 H       1  UNL1        0.0576
     34 H          -4.9414    2.7476    2.3462 H       1  UNL1        0.0635
     35 H          -1.9818    2.3216    1.7728 H       1  UNL1        0.1659
     36 H           0.3803    2.1582    1.4415 H       1  UNL1        0.0836
     37 H           1.8892   -1.5624   -1.3621 H       1  UNL1        0.0645
     38 H           0.2288   -3.0059   -2.2465 H       1  UNL1        0.0581
     39 H           7.1463   -0.9544   -1.4056 H       1  UNL1        0.0701
     40 H           7.9762    1.6842    0.4159 H       1  UNL1        0.0655
     41 H           6.1190    3.2596    1.7171 H       1  UNL1        0.1030
@<TRIPOS>BOND
     1     1     2    1
     2     2     3    2
     3     3     4   ar
     4     4     5   ar
     5     5     6    1
     6     6     7    1
     7     7     8    2
     8     8     9    1
     9     9    10   ar
    10    10    11   ar
    11    11    12   ar
    12    12    13   ar
    13    13    14   ar
    14    14    15   ar
    15    15    16   ar
    16    16    17   ar
    17    17    18   ar
    18    18    19    2
    19    15    20    1
    20    20    21   ar
    21    21    22   ar
    22    22    23   ar
    23    23    24   ar
    24    24    25   ar
    25    25    26   ar
    26    26    27   ar
    27    19     1    1
    28    27    20   ar
    29    18     3   ar
    30    27    23   ar
    31    11     4   ar
    32    17    12   ar
    33     9     5   ar
    34     1    28    1
    35     1    29    1
    36     2    30    1
    37     6    31    1
    38     6    32    1
    39     7    33    1
    40     8    34    1
    41    10    35    1
    42    13    36    1
    43    16    37    1
    44    19    38    1
    45    22    39    1
    46    24    40    1
    47    25    41    1
