@<TRIPOS>MOLECULE
*****
 38 43 0 0 0
SMALL
GASTEIGER

@<TRIPOS>ATOM
      1 C          -0.9264   -3.7438    0.3998 C.3     1  UNL1       -0.0148
      2 C          -1.9559   -2.6590    0.2702 C.2     1  UNL1       -0.0719
      3 C          -1.3466   -1.4743    0.1311 C.ar    1  UNL1       -0.0114
      4 C          -1.8604   -0.1542   -0.0261 C.ar    1  UNL1        0.0169
      5 C          -3.1671    0.3987   -0.0940 C.ar    1  UNL1        0.0080
      6 C          -4.4798   -0.1137   -0.0355 C.ar    1  UNL1       -0.0520
      7 C          -5.5709    0.7577   -0.1408 C.ar    1  UNL1       -0.0611
      8 C          -5.3744    2.1261   -0.3028 C.ar    1  UNL1       -0.0598
      9 C          -4.0868    2.6648   -0.3644 C.ar    1  UNL1       -0.0378
     10 C          -3.0044    1.7824   -0.2578 C.ar    1  UNL1        0.0475
     11 N          -1.6503    2.0434   -0.2864 N.ar    1  UNL1       -0.3524
     12 C          -0.9482    0.8814   -0.1471 C.ar    1  UNL1        0.0744
     13 C           0.5028    0.7465   -0.1283 C.ar    1  UNL1        0.0954
     14 N           1.2153    1.8869   -0.2580 N.ar    1  UNL1       -0.2523
     15 C           2.5619    1.7334   -0.2372 C.ar    1  UNL1        0.0366
     16 C           3.2323    0.5122   -0.0939 C.ar    1  UNL1        0.0089
     17 C           2.4460   -0.6424    0.0417 C.ar    1  UNL1       -0.0422
     18 C           1.0553   -0.5412    0.0242 C.ar    1  UNL1        0.0104
     19 C           0.1144   -1.6744    0.1572 C.ar    1  UNL1       -0.0119
     20 C           0.3680   -2.9848    0.3121 C.2     1  UNL1       -0.0719
     21 C           4.6958    0.4676   -0.0713 C.ar    1  UNL1        0.0402
     22 C           5.5992    1.3395    0.5140 C.ar    1  UNL1        0.0425
     23 N           6.9374    1.0423    0.3399 N.ar    1  UNL1       -0.2551
     24 C           7.0441   -0.0525   -0.3780 C.ar    1  UNL1        0.0652
     25 S           5.5740   -0.7750   -0.8778 S.2     1  UNL1       -0.0754
     26 H          -1.0131   -4.4680   -0.4155 H       1  UNL1        0.0350
     27 H          -1.0157   -4.2581    1.3612 H       1  UNL1        0.0350
     28 H          -3.0188   -2.8347    0.2891 H       1  UNL1        0.0581
     29 H          -4.6549   -1.1766    0.0902 H       1  UNL1        0.0624
     30 H          -6.5813    0.3589   -0.0953 H       1  UNL1        0.0618
     31 H          -6.2345    2.7868   -0.3827 H       1  UNL1        0.0618
     32 H          -3.9367    3.7321   -0.4908 H       1  UNL1        0.0638
     33 H          -1.2237    2.9535   -0.3939 H       1  UNL1        0.1660
     34 H           3.1119    2.6647   -0.3548 H       1  UNL1        0.0836
     35 H           2.9144   -1.6132    0.1725 H       1  UNL1        0.0631
     36 H           1.3385   -3.4526    0.3682 H       1  UNL1        0.0581
     37 H           5.3353    2.2176    1.0923 H       1  UNL1        0.0841
     38 H           8.0034   -0.4781   -0.6429 H       1  UNL1        0.0907
@<TRIPOS>BOND
     1     1     2    1
     2     2     3    2
     3     3     4   ar
     4     4     5   ar
     5     5     6   ar
     6     6     7   ar
     7     7     8   ar
     8     8     9   ar
     9     9    10   ar
    10    10    11   ar
    11    11    12   ar
    12    12    13   ar
    13    13    14   ar
    14    14    15   ar
    15    15    16   ar
    16    16    17   ar
    17    17    18   ar
    18    18    19   ar
    19    19    20    2
    20    16    21    1
    21    21    22   ar
    22    22    23   ar
    23    23    24   ar
    24    24    25   ar
    25    20     1    1
    26    25    21   ar
    27    19     3   ar
    28    12     4   ar
    29    18    13   ar
    30    10     5   ar
    31     1    26    1
    32     1    27    1
    33     2    28    1
    34     6    29    1
    35     7    30    1
    36     8    31    1
    37     9    32    1
    38    11    33    1
    39    15    34    1
    40    17    35    1
    41    20    36    1
    42    22    37    1
    43    24    38    1
