@<TRIPOS>MOLECULE
*****
 47 54 0 0 0
SMALL
GASTEIGER

@<TRIPOS>ATOM
      1 C          -1.9891   -4.3373   -1.2335 C.3     1  UNL1        0.0000
      2 C          -0.8094   -3.5099   -0.8195 C.2     1  UNL1        0.0000
      3 C          -1.2181   -2.2615   -0.5628 C.ar    1  UNL1        0.0000
      4 C          -0.5282   -1.0913   -0.1712 C.ar    1  UNL1        0.0000
      5 C           0.8380   -0.7824    0.0323 C.ar    1  UNL1        0.0000
      6 C           2.0437   -1.4875   -0.0050 C.ar    1  UNL1        0.0000
      7 N           3.2237   -0.8574    0.2256 N.ar    1  UNL1        0.0000
      8 C           3.2419    0.4719    0.4936 C.ar    1  UNL1        0.0000
      9 C           2.0897    1.2555    0.5344 C.ar    1  UNL1        0.0000
     10 C           0.8865    0.5868    0.2998 C.ar    1  UNL1        0.0000
     11 N          -0.4056    1.0702    0.2483 N.ar    1  UNL1        0.0000
     12 C          -1.2909    0.0490    0.0350 C.ar    1  UNL1        0.0000
     13 C          -2.7257    0.2131   -0.0621 C.ar    1  UNL1        0.0000
     14 C          -3.4128   -0.8872   -0.5470 C.ar    1  UNL1        0.0000
     15 C          -4.8608   -0.7976   -0.8373 C.ar    1  UNL1        0.0000
     16 C          -5.5976    0.3044   -0.6270 C.ar    1  UNL1        0.0000
     17 C          -4.9665    1.4557   -0.0364 C.ar    1  UNL1        0.0000
     18 C          -5.6246    2.5783    0.3065 C.2     1  UNL1        0.0000
     19 SI         -4.4933    3.7715    1.1714 Si      1  UNL1        0.0000
     20 C          -3.1112    2.5127    0.9721 C.2     1  UNL1        0.0000
     21 C          -3.5192    1.4156    0.2957 C.ar    1  UNL1        0.0000
     22 C          -2.6638   -2.1463   -0.7799 C.ar    1  UNL1        0.0000
     23 C          -3.1206   -3.3508   -1.1688 C.2     1  UNL1        0.0000
     24 C           4.5868    1.0184    0.7226 C.ar    1  UNL1        0.0000
     25 S           4.8430    2.4456    1.6772 S.2     1  UNL1        0.0000
     26 C           6.5518    2.4100    1.4866 C.ar    1  UNL1        0.0000
     27 C           6.9202    1.3408    0.7249 C.ar    1  UNL1        0.0000
     28 S           8.5472    0.7835    0.1887 S.2     1  UNL1        0.0000
     29 C           7.6703   -0.5145   -0.6080 C.ar    1  UNL1        0.0000
     30 C           6.2783   -0.4992   -0.4649 C.ar    1  UNL1        0.0000
     31 C           5.8152    0.5909    0.3233 C.ar    1  UNL1        0.0000
     32 H          -1.8628   -4.7242   -2.2490 H       1  UNL1        0.0000
     33 H          -2.1511   -5.1675   -0.5398 H       1  UNL1        0.0000
     34 H           0.1979   -3.8864   -0.7559 H       1  UNL1        0.0000
     35 H           2.1060   -2.5483   -0.2130 H       1  UNL1        0.0000
     36 H           2.1131    2.3203    0.7246 H       1  UNL1        0.0000
     37 H          -0.6391    2.0475    0.3172 H       1  UNL1        0.0000
     38 H          -5.3436   -1.6685   -1.2675 H       1  UNL1        0.0000
     39 H          -6.6552    0.3288   -0.8640 H       1  UNL1        0.0000
     40 H          -6.6743    2.7866    0.1723 H       1  UNL1        0.0000
     41 H          -4.8509    3.9834    2.5940 H       1  UNL1        0.0000
     42 H          -4.2330    4.9993    0.3825 H       1  UNL1        0.0000
     43 H          -2.1596    2.7309    1.4183 H       1  UNL1        0.0000
     44 H          -4.1420   -3.6124   -1.3948 H       1  UNL1        0.0000
     45 H           7.2030    3.1510    1.9290 H       1  UNL1        0.0000
     46 H           8.2543   -1.2411   -1.1560 H       1  UNL1        0.0000
     47 H           5.6384   -1.2507   -0.9123 H       1  UNL1        0.0000
@<TRIPOS>BOND
     1     1     2    1
     2     2     3    2
     3     3     4   ar
     4     4     5   ar
     5     5     6   ar
     6     6     7   ar
     7     7     8   ar
     8     8     9   ar
     9     9    10   ar
    10    10    11   ar
    11    11    12   ar
    12    12    13   ar
    13    13    14   ar
    14    14    15   ar
    15    15    16   ar
    16    16    17   ar
    17    17    18    2
    18    18    19    1
    19    19    20    1
    20    20    21    2
    21    14    22   ar
    22    22    23    2
    23     8    24    1
    24    24    25   ar
    25    25    26   ar
    26    26    27   ar
    27    27    28   ar
    28    28    29   ar
    29    29    30   ar
    30    30    31   ar
    31    23     1    1
    32    31    24   ar
    33    22     3   ar
    34    31    27   ar
    35    12     4   ar
    36    21    13   ar
    37    10     5   ar
    38    21    17   ar
    39     1    32    1
    40     1    33    1
    41     2    34    1
    42     6    35    1
    43     9    36    1
    44    11    37    1
    45    15    38    1
    46    16    39    1
    47    18    40    1
    48    19    41    1
    49    19    42    1
    50    20    43    1
    51    23    44    1
    52    26    45    1
    53    29    46    1
    54    30    47    1
