@<TRIPOS>MOLECULE
*****
 47 54 0 0 0
SMALL
GASTEIGER

@<TRIPOS>ATOM
      1 C          -2.9752    3.0946    2.6925 C.3     1  UNL1       -0.0148
      2 C          -1.7174    2.4457    2.1976 C.2     1  UNL1       -0.0719
      3 C          -2.0231    1.4712    1.3294 C.ar    1  UNL1       -0.0114
      4 C          -1.1947    0.5749    0.5938 C.ar    1  UNL1        0.0169
      5 C           0.2129    0.4023    0.5236 C.ar    1  UNL1        0.0261
      6 C           1.3298    1.0019    1.1110 C.ar    1  UNL1        0.0380
      7 N           2.5847    0.5785    0.8130 N.ar    1  UNL1       -0.2537
      8 C           2.7759   -0.4385   -0.0642 C.ar    1  UNL1        0.0801
      9 C           1.7175   -1.0913   -0.6947 C.ar    1  UNL1       -0.0112
     10 C           0.4336   -0.6413   -0.3752 C.ar    1  UNL1        0.0510
     11 N          -0.7953   -1.0758   -0.8248 N.ar    1  UNL1       -0.3535
     12 C          -1.8025   -0.3503   -0.2488 C.ar    1  UNL1        0.0566
     13 C          -3.2458   -0.4719   -0.4373 C.ar    1  UNL1        0.0173
     14 C          -3.9486   -1.3618   -1.2547 C.ar    1  UNL1        0.0295
     15 C          -3.5016   -2.3510   -2.0937 C.ar    1  UNL1        0.1000
     16 O          -4.5618   -2.9736   -2.6978 O.2     1  UNL1       -0.4698
     17 C          -5.7040   -2.3793   -2.2433 C.ar    1  UNL1        0.0994
     18 C          -5.3763   -1.3883   -1.3589 C.ar    1  UNL1        0.0205
     19 C          -6.2673   -0.5629   -0.6883 C.ar    1  UNL1       -0.0504
     20 C          -5.5768    0.3477    0.1463 C.ar    1  UNL1       -0.0527
     21 C          -4.1403    0.4067    0.2793 C.ar    1  UNL1       -0.0078
     22 C          -3.4857    1.3951    1.1797 C.ar    1  UNL1       -0.0134
     23 C          -4.0444    2.3321    1.9660 C.2     1  UNL1       -0.0719
     24 C           4.1942   -0.7859   -0.2864 C.ar    1  UNL1        0.0450
     25 S           4.6646   -2.0659   -1.3759 S.2     1  UNL1       -0.0942
     26 C           6.3505   -1.8529   -1.0943 C.ar    1  UNL1       -0.0196
     27 C           6.5556   -0.8417   -0.2008 C.ar    1  UNL1       -0.0288
     28 C           7.7214   -0.1755    0.4463 C.3     1  UNL1       -0.0081
     29 C           7.0060    0.8624    1.3107 C.2     1  UNL1       -0.0791
     30 C           5.6641    0.7814    1.1638 C.2     1  UNL1       -0.0568
     31 C           5.3447   -0.2538    0.2429 C.ar    1  UNL1       -0.0056
     32 H          -3.0010    4.1560    2.4293 H       1  UNL1        0.0350
     33 H          -3.0775    2.9805    3.7757 H       1  UNL1        0.0350
     34 H          -0.7324    2.7446    2.5144 H       1  UNL1        0.0581
     35 H           1.2661    1.8176    1.8196 H       1  UNL1        0.0836
     36 H           1.8623   -1.9028   -1.3951 H       1  UNL1        0.0660
     37 H          -0.9104   -1.8262   -1.4864 H       1  UNL1        0.1659
     38 H          -2.5422   -2.7465   -2.3849 H       1  UNL1        0.1036
     39 H          -6.6275   -2.7751   -2.6416 H       1  UNL1        0.1035
     40 H          -7.3446   -0.5908   -0.7738 H       1  UNL1        0.0625
     41 H          -6.1867    1.0445    0.7203 H       1  UNL1        0.0624
     42 H          -5.0966    2.5361    2.0843 H       1  UNL1        0.0581
     43 H           7.0773   -2.4758   -1.5962 H       1  UNL1        0.0696
     44 H           8.2945   -0.8704    1.0663 H       1  UNL1        0.0356
     45 H           8.3714    0.3097   -0.2870 H       1  UNL1        0.0356
     46 H           7.5187    1.5637    1.9515 H       1  UNL1        0.0575
     47 H           4.9338    1.4023    1.6638 H       1  UNL1        0.0621
@<TRIPOS>BOND
     1     1     2    1
     2     2     3    2
     3     3     4   ar
     4     4     5   ar
     5     5     6   ar
     6     6     7   ar
     7     7     8   ar
     8     8     9   ar
     9     9    10   ar
    10    10    11   ar
    11    11    12   ar
    12    12    13   ar
    13    13    14   ar
    14    14    15   ar
    15    15    16   ar
    16    16    17   ar
    17    17    18   ar
    18    18    19   ar
    19    19    20   ar
    20    20    21   ar
    21    21    22   ar
    22    22    23    2
    23     8    24    1
    24    24    25   ar
    25    25    26   ar
    26    26    27   ar
    27    27    28    1
    28    28    29    1
    29    29    30    2
    30    30    31    1
    31    23     1    1
    32    31    24   ar
    33    22     3   ar
    34    31    27   ar
    35    12     4   ar
    36    21    13   ar
    37    10     5   ar
    38    18    14   ar
    39     1    32    1
    40     1    33    1
    41     2    34    1
    42     6    35    1
    43     9    36    1
    44    11    37    1
    45    15    38    1
    46    17    39    1
    47    19    40    1
    48    20    41    1
    49    23    42    1
    50    26    43    1
    51    28    44    1
    52    28    45    1
    53    29    46    1
    54    30    47    1
