@<TRIPOS>MOLECULE
*****
 43 49 0 0 0
SMALL
GASTEIGER

@<TRIPOS>ATOM
      1 C          -3.0018    0.2686    3.8118 C.3     1  UNL1       -0.0148
      2 C          -1.6218    0.1537    3.2332 C.2     1  UNL1       -0.0718
      3 C          -1.6958    0.1728    1.8960 C.ar    1  UNL1       -0.0098
      4 C          -0.6878    0.0942    0.9009 C.ar    1  UNL1        0.0374
      5 C           0.7184   -0.0285    0.9054 C.ar    1  UNL1        0.0466
      6 C           1.7364   -0.1263    1.8494 C.ar    1  UNL1        0.0396
      7 N           3.0302   -0.2354    1.4485 N.ar    1  UNL1       -0.2544
      8 C           3.3455   -0.2504    0.1263 C.ar    1  UNL1        0.0708
      9 C           2.3958   -0.1579   -0.8836 C.ar    1  UNL1        0.0070
     10 C           1.0869   -0.0479   -0.4378 C.ar    1  UNL1        0.1398
     11 O          -0.0106    0.0555   -1.2471 O.2     1  UNL1       -0.4540
     12 C          -1.0819    0.1412   -0.4226 C.ar    1  UNL1        0.1452
     13 C          -2.4393    0.2643   -0.9176 C.ar    1  UNL1        0.0338
     14 C          -2.8773    0.3151   -2.2492 C.ar    1  UNL1        0.0004
     15 C          -2.0802    0.2562   -3.3684 C.ar    1  UNL1       -0.0159
     16 S          -2.9994    0.3502   -4.8202 S.2     1  UNL1       -0.1039
     17 C          -4.4814    0.4713   -3.9617 C.ar    1  UNL1       -0.0166
     18 C          -4.2735    0.4404   -2.6050 C.ar    1  UNL1       -0.0102
     19 C          -5.3267    0.5236   -1.6923 C.ar    1  UNL1       -0.0529
     20 C          -4.8874    0.4726   -0.3487 C.ar    1  UNL1       -0.0527
     21 C          -3.5133    0.3489    0.0425 C.ar    1  UNL1       -0.0063
     22 C          -3.1060    0.2998    1.4795 C.ar    1  UNL1       -0.0133
     23 C          -3.8674    0.3558    2.5863 C.2     1  UNL1       -0.0719
     24 C           4.7751   -0.3723   -0.1687 C.2     1  UNL1       -0.0182
     25 C           5.4058   -0.4161   -1.3566 C.2     1  UNL1       -0.0565
     26 C           6.8261   -0.5420   -1.1490 C.2     1  UNL1       -0.0650
     27 C           7.0826   -0.5769    0.1654 C.2     1  UNL1       -0.0796
     28 C           5.7963   -0.4720    0.9370 C.3     1  UNL1       -0.0072
     29 H          -3.2532   -0.6131    4.4085 H       1  UNL1        0.0350
     30 H          -3.0976    1.1692    4.4254 H       1  UNL1        0.0350
     31 H          -0.7270    0.0699    3.8286 H       1  UNL1        0.0581
     32 H           1.5671   -0.1216    2.9191 H       1  UNL1        0.0837
     33 H           2.6308   -0.1685   -1.9369 H       1  UNL1        0.0676
     34 H          -1.0065    0.1632   -3.4424 H       1  UNL1        0.0700
     35 H          -5.4124    0.5577   -4.5049 H       1  UNL1        0.0699
     36 H          -6.3721    0.6174   -1.9576 H       1  UNL1        0.0624
     37 H          -5.6546    0.5322    0.4222 H       1  UNL1        0.0624
     38 H          -4.9412    0.4491    2.6289 H       1  UNL1        0.0581
     39 H           4.9610   -0.3679   -2.3384 H       1  UNL1        0.0621
     40 H           7.5543   -0.5980   -1.9439 H       1  UNL1        0.0615
     41 H           8.0590   -0.6664    0.6166 H       1  UNL1        0.0575
     42 H           5.6444   -1.3649    1.5520 H       1  UNL1        0.0356
     43 H           5.8003    0.4220    1.5690 H       1  UNL1        0.0356
@<TRIPOS>BOND
     1     1     2    1
     2     2     3    2
     3     3     4   ar
     4     4     5   ar
     5     5     6   ar
     6     6     7   ar
     7     7     8   ar
     8     8     9   ar
     9     9    10   ar
    10    10    11   ar
    11    11    12   ar
    12    12    13   ar
    13    13    14   ar
    14    14    15   ar
    15    15    16   ar
    16    16    17   ar
    17    17    18   ar
    18    18    19   ar
    19    19    20   ar
    20    20    21   ar
    21    21    22   ar
    22    22    23    2
    23     8    24    1
    24    24    25    2
    25    25    26    1
    26    26    27    2
    27    27    28    1
    28    23     1    1
    29    28    24    1
    30    22     3   ar
    31    12     4   ar
    32    21    13   ar
    33    10     5   ar
    34    18    14   ar
    35     1    29    1
    36     1    30    1
    37     2    31    1
    38     6    32    1
    39     9    33    1
    40    15    34    1
    41    17    35    1
    42    19    36    1
    43    20    37    1
    44    23    38    1
    45    25    39    1
    46    26    40    1
    47    27    41    1
    48    28    42    1
    49    28    43    1
