@<TRIPOS>MOLECULE
*****
 47 54 0 0 0
SMALL
GASTEIGER

@<TRIPOS>ATOM
      1 C          -2.7162    3.5631   -0.8983 C.3     1  UNL1        0.0000
      2 C          -3.5880    2.3503   -0.7683 C.2     1  UNL1        0.0000
      3 C          -2.8487    1.3012   -0.3813 C.ar    1  UNL1        0.0000
      4 C          -3.2047   -0.0534   -0.1194 C.ar    1  UNL1        0.0000
      5 C          -4.4410   -0.7511   -0.1770 C.ar    1  UNL1        0.0000
      6 C          -5.7649   -0.4261   -0.4999 C.ar    1  UNL1        0.0000
      7 N          -6.7440   -1.3650   -0.4510 N.ar    1  UNL1        0.0000
      8 C          -6.4230   -2.6234   -0.0839 C.ar    1  UNL1        0.0000
      9 C          -5.1492   -3.0505    0.2552 C.ar    1  UNL1        0.0000
     10 C          -4.1617   -2.0686    0.1965 C.ar    1  UNL1        0.0000
     11 N          -2.8121   -2.1506    0.4658 N.ar    1  UNL1        0.0000
     12 C          -2.2064   -0.9378    0.2776 C.ar    1  UNL1        0.0000
     13 C          -0.8000   -0.5760    0.4459 C.ar    1  UNL1        0.0000
     14 C           0.2691   -1.3914    0.8344 C.ar    1  UNL1        0.0000
     15 C           0.2999   -2.7234    1.1616 C.ar    1  UNL1        0.0000
     16 O           1.5734   -3.1006    1.4898 O.2     1  UNL1        0.0000
     17 C           2.3723   -2.0009    1.3753 C.ar    1  UNL1        0.0000
     18 C           1.6222   -0.9292    0.9659 C.ar    1  UNL1        0.0000
     19 C           2.0535    0.3773    0.7295 C.ar    1  UNL1        0.0000
     20 C           0.9891    1.2222    0.3370 C.ar    1  UNL1        0.0000
     21 C          -0.3760    0.7832    0.1967 C.ar    1  UNL1        0.0000
     22 C          -1.4480    1.7253   -0.2259 C.ar    1  UNL1        0.0000
     23 C          -1.3629    3.0341   -0.5233 C.2     1  UNL1        0.0000
     24 C           3.4316    0.7978    0.8498 C.ar    1  UNL1        0.0000
     25 S           3.9107    1.7980    2.1763 S.2     1  UNL1        0.0000
     26 C           5.5600    1.8561    1.6605 C.ar    1  UNL1        0.0000
     27 C           5.7299    1.1397    0.5069 C.ar    1  UNL1        0.0000
     28 C           6.8977    0.9111   -0.2871 C.2     1  UNL1        0.0000
     29 C           6.6963    0.1509   -1.3860 C.2     1  UNL1        0.0000
     30 SI          4.8626   -0.3926   -1.5339 Si      1  UNL1        0.0000
     31 C           4.5174    0.5494    0.0627 C.ar    1  UNL1        0.0000
     32 H          -3.0344    4.3527   -0.2113 H       1  UNL1        0.0000
     33 H          -2.7199    3.9430   -1.9242 H       1  UNL1        0.0000
     34 H          -4.6472    2.3590   -0.9634 H       1  UNL1        0.0000
     35 H          -6.0797    0.5651   -0.7998 H       1  UNL1        0.0000
     36 H          -7.2585   -3.3188   -0.0673 H       1  UNL1        0.0000
     37 H          -4.9464   -4.0734    0.5434 H       1  UNL1        0.0000
     38 H          -2.3586   -2.9995    0.7608 H       1  UNL1        0.0000
     39 H          -0.4187   -3.5242    1.2243 H       1  UNL1        0.0000
     40 H           3.4147   -2.1545    1.6188 H       1  UNL1        0.0000
     41 H           1.2312    2.2634    0.1270 H       1  UNL1        0.0000
     42 H          -0.4760    3.6476   -0.5059 H       1  UNL1        0.0000
     43 H           6.2893    2.4124    2.2323 H       1  UNL1        0.0000
     44 H           7.8644    1.3219   -0.0192 H       1  UNL1        0.0000
     45 H           7.4218   -0.1490   -2.1247 H       1  UNL1        0.0000
     46 H           4.7436   -1.8659   -1.4008 H       1  UNL1        0.0000
     47 H           4.2356    0.2014   -2.7406 H       1  UNL1        0.0000
@<TRIPOS>BOND
     1     1     2    1
     2     2     3    2
     3     3     4   ar
     4     4     5   ar
     5     5     6   ar
     6     6     7   ar
     7     7     8   ar
     8     8     9   ar
     9     9    10   ar
    10    10    11   ar
    11    11    12   ar
    12    12    13   ar
    13    13    14   ar
    14    14    15   ar
    15    15    16   ar
    16    16    17   ar
    17    17    18   ar
    18    18    19   ar
    19    19    20   ar
    20    20    21   ar
    21    21    22   ar
    22    22    23    2
    23    19    24    1
    24    24    25   ar
    25    25    26   ar
    26    26    27   ar
    27    27    28    1
    28    28    29    2
    29    29    30    1
    30    30    31    1
    31    23     1    1
    32    31    24   ar
    33    22     3   ar
    34    31    27   ar
    35    12     4   ar
    36    21    13   ar
    37    10     5   ar
    38    18    14   ar
    39     1    32    1
    40     1    33    1
    41     2    34    1
    42     6    35    1
    43     8    36    1
    44     9    37    1
    45    11    38    1
    46    15    39    1
    47    17    40    1
    48    20    41    1
    49    23    42    1
    50    26    43    1
    51    28    44    1
    52    29    45    1
    53    30    46    1
    54    30    47    1
