@<TRIPOS>MOLECULE
*****
 40 45 0 0 0
SMALL
GASTEIGER

@<TRIPOS>ATOM
      1 C          -3.7452   -2.8245    1.2249 C.3     1  UNL1       -0.0148
      2 C          -2.3321   -2.3458    1.0839 C.2     1  UNL1       -0.0718
      3 C          -2.3245   -1.1527    0.4763 C.ar    1  UNL1       -0.0100
      4 C          -1.2524   -0.2942    0.1175 C.ar    1  UNL1        0.0337
      5 C           0.1463   -0.3904    0.2704 C.ar    1  UNL1        0.0968
      6 N           0.9038   -1.3651    0.8277 N.ar    1  UNL1       -0.2522
      7 C           2.2397   -1.1243    0.8083 C.ar    1  UNL1        0.0376
      8 C           2.8918   -0.0080    0.2702 C.ar    1  UNL1        0.0204
      9 C           2.0752    0.9853   -0.2941 C.ar    1  UNL1       -0.0256
     10 C           0.6931    0.7676   -0.2819 C.ar    1  UNL1        0.0667
     11 N          -0.3515    1.5407   -0.7451 N.ar    1  UNL1       -0.3524
     12 C          -1.5473    0.9071   -0.5147 C.ar    1  UNL1        0.0589
     13 C          -2.9016    1.3721   -0.8502 C.ar    1  UNL1        0.0248
     14 C          -3.1795    2.5756   -1.4829 C.ar    1  UNL1        0.0373
     15 N          -4.4281    2.9999   -1.7910 N.ar    1  UNL1       -0.2626
     16 C          -5.4499    2.1832   -1.4504 C.ar    1  UNL1        0.0282
     17 C          -5.2922    0.9605   -0.8166 C.ar    1  UNL1       -0.0352
     18 C          -3.9994    0.5402   -0.5078 C.ar    1  UNL1       -0.0056
     19 C          -3.7014   -0.7452    0.1682 C.ar    1  UNL1       -0.0132
     20 C          -4.5359   -1.7078    0.5978 C.2     1  UNL1       -0.0719
     21 C           4.3622    0.0999    0.3134 C.ar    1  UNL1        0.0725
     22 C           5.1046    0.7973   -0.6413 C.ar    1  UNL1       -0.0356
     23 C           6.4931    0.8513   -0.5251 C.ar    1  UNL1       -0.0583
     24 C           7.1130    0.2092    0.5370 C.ar    1  UNL1       -0.0436
     25 C           6.3148   -0.4678    1.4397 C.ar    1  UNL1        0.0283
     26 N           4.9680   -0.5375    1.3481 N.ar    1  UNL1       -0.2549
     27 H          -3.8989   -3.7643    0.6866 H       1  UNL1        0.0350
     28 H          -4.0150   -2.9533    2.2772 H       1  UNL1        0.0350
     29 H          -1.4588   -2.8835    1.4227 H       1  UNL1        0.0581
     30 H           2.8238   -1.9212    1.2686 H       1  UNL1        0.0836
     31 H           2.4854    1.8993   -0.7082 H       1  UNL1        0.0646
     32 H          -0.2387    2.4408   -1.1885 H       1  UNL1        0.1660
     33 H          -2.3950    3.2650   -1.7756 H       1  UNL1        0.0836
     34 H          -6.4391    2.5509   -1.7101 H       1  UNL1        0.0830
     35 H          -6.1628    0.3627   -0.5762 H       1  UNL1        0.0639
     36 H          -5.6116   -1.7119    0.5219 H       1  UNL1        0.0581
     37 H           4.6247    1.2840   -1.4834 H       1  UNL1        0.0639
     38 H           7.0839    1.3877   -1.2624 H       1  UNL1        0.0619
     39 H           8.1902    0.2315    0.6568 H       1  UNL1        0.0633
     40 H           6.7473   -0.9904    2.2882 H       1  UNL1        0.0830
@<TRIPOS>BOND
     1     1     2    1
     2     2     3    2
     3     3     4   ar
     4     4     5   ar
     5     5     6   ar
     6     6     7   ar
     7     7     8   ar
     8     8     9   ar
     9     9    10   ar
    10    10    11   ar
    11    11    12   ar
    12    12    13   ar
    13    13    14   ar
    14    14    15   ar
    15    15    16   ar
    16    16    17   ar
    17    17    18   ar
    18    18    19   ar
    19    19    20    2
    20     8    21    1
    21    21    22   ar
    22    22    23   ar
    23    23    24   ar
    24    24    25   ar
    25    25    26   ar
    26    20     1    1
    27    26    21   ar
    28    19     3   ar
    29    12     4   ar
    30    18    13   ar
    31    10     5   ar
    32     1    27    1
    33     1    28    1
    34     2    29    1
    35     7    30    1
    36     9    31    1
    37    11    32    1
    38    14    33    1
    39    16    34    1
    40    17    35    1
    41    20    36    1
    42    22    37    1
    43    23    38    1
    44    24    39    1
    45    25    40    1
