@<TRIPOS>MOLECULE
*****
 42 48 0 0 0
SMALL
GASTEIGER

@<TRIPOS>ATOM
      1 C          -2.3595    1.1486   -3.5131 C.3     1  UNL1       -0.0148
      2 C          -1.2584    0.8582   -2.5347 C.2     1  UNL1       -0.0717
      3 C          -1.7971    0.5379   -1.3532 C.ar    1  UNL1       -0.0069
      4 C          -1.2203    0.1862   -0.1229 C.ar    1  UNL1        0.0712
      5 C           0.0567    0.0221    0.3879 C.ar    1  UNL1        0.1818
      6 O           1.3559    0.1082    0.0050 O.2     1  UNL1       -0.4509
      7 C           2.0790   -0.2335    1.1282 C.ar    1  UNL1        0.1399
      8 C           1.2659   -0.5085    2.2177 C.ar    1  UNL1        0.0273
      9 C          -0.0130   -0.3375    1.6825 C.ar    1  UNL1        0.1747
     10 O          -1.3172   -0.4255    2.0864 O.2     1  UNL1       -0.4508
     11 C          -2.0253   -0.1013    0.9602 C.ar    1  UNL1        0.1476
     12 C          -3.4878   -0.0789    0.9671 C.ar    1  UNL1        0.0257
     13 C          -4.2459   -0.3812    2.0995 C.ar    1  UNL1       -0.0505
     14 C          -5.6389   -0.3388    2.0289 C.ar    1  UNL1       -0.0611
     15 C          -6.2749    0.0039    0.8330 C.ar    1  UNL1       -0.0611
     16 C          -5.5273    0.3089   -0.3087 C.ar    1  UNL1       -0.0533
     17 C          -4.1308    0.2727   -0.2609 C.ar    1  UNL1       -0.0069
     18 C          -3.2664    0.5850   -1.4358 C.ar    1  UNL1       -0.0132
     19 C          -3.6024    0.9391   -2.6883 C.2     1  UNL1       -0.0719
     20 C           3.5219   -0.1925    0.9838 C.ar    1  UNL1        0.0256
     21 C           4.3832    0.2761    2.0095 C.ar    1  UNL1       -0.0505
     22 C           5.8105    0.3297    1.9009 C.ar    1  UNL1       -0.0605
     23 C           6.5279   -0.0859    0.7608 C.ar    1  UNL1       -0.0535
     24 C           5.6830   -0.5594   -0.2430 C.ar    1  UNL1       -0.0102
     25 C           6.1661   -1.0317   -1.4383 C.ar    1  UNL1       -0.0166
     26 S           4.8912   -1.5666   -2.4561 S.2     1  UNL1       -0.1039
     27 C           3.6924   -1.1654   -1.2897 C.ar    1  UNL1       -0.0159
     28 C           4.2396   -0.6170   -0.1515 C.ar    1  UNL1       -0.0002
     29 H          -2.3004    2.1781   -3.8782 H       1  UNL1        0.0350
     30 H          -2.3284    0.4546   -4.3582 H       1  UNL1        0.0350
     31 H          -0.2037    0.9050   -2.7601 H       1  UNL1        0.0581
     32 H           1.5595   -0.7885    3.2167 H       1  UNL1        0.0693
     33 H          -3.7598   -0.6490    3.0341 H       1  UNL1        0.0625
     34 H          -6.2318   -0.5739    2.9096 H       1  UNL1        0.0618
     35 H          -7.3613    0.0336    0.7897 H       1  UNL1        0.0618
     36 H          -6.0489    0.5717   -1.2241 H       1  UNL1        0.0624
     37 H          -4.6013    1.0636   -3.0761 H       1  UNL1        0.0581
     38 H           3.9425    0.6349    2.9407 H       1  UNL1        0.0625
     39 H           6.3727    0.7172    2.7514 H       1  UNL1        0.0618
     40 H           7.6072   -0.0387    0.6989 H       1  UNL1        0.0624
     41 H           7.1906   -1.1019   -1.7766 H       1  UNL1        0.0699
     42 H           2.6550   -1.3597   -1.5228 H       1  UNL1        0.0700
@<TRIPOS>BOND
     1     1     2    1
     2     2     3    2
     3     3     4   ar
     4     4     5   ar
     5     5     6   ar
     6     6     7   ar
     7     7     8   ar
     8     8     9   ar
     9     9    10   ar
    10    10    11   ar
    11    11    12   ar
    12    12    13   ar
    13    13    14   ar
    14    14    15   ar
    15    15    16   ar
    16    16    17   ar
    17    17    18   ar
    18    18    19    2
    19     7    20    1
    20    20    21   ar
    21    21    22   ar
    22    22    23   ar
    23    23    24   ar
    24    24    25   ar
    25    25    26   ar
    26    26    27   ar
    27    27    28   ar
    28    19     1    1
    29    28    20   ar
    30    18     3   ar
    31    28    24   ar
    32    11     4   ar
    33    17    12   ar
    34     9     5   ar
    35     1    29    1
    36     1    30    1
    37     2    31    1
    38     8    32    1
    39    13    33    1
    40    14    34    1
    41    15    35    1
    42    16    36    1
    43    19    37    1
    44    21    38    1
    45    22    39    1
    46    23    40    1
    47    25    41    1
    48    27    42    1
