@<TRIPOS>MOLECULE
*****
 48 55 0 0 0
SMALL
GASTEIGER

@<TRIPOS>ATOM
      1 SI          2.0249   -0.2186   -4.2171 Si      1  UNL1        0.0000
      2 C           2.9734   -0.0785   -2.6200 C.2     1  UNL1        0.0000
      3 C           2.1463   -0.0103   -1.5558 C.ar    1  UNL1        0.0000
      4 C           2.5778    0.0956   -0.1637 C.ar    1  UNL1        0.0000
      5 C           1.6387    0.1598    0.8045 C.ar    1  UNL1        0.0000
      6 C           0.1864    0.1113    0.5151 C.ar    1  UNL1        0.0000
      7 C          -0.7191    0.1730    1.5785 C.ar    1  UNL1        0.0000
      8 C          -2.1153    0.1336    1.3431 C.ar    1  UNL1        0.0000
      9 C          -3.1250    0.1908    2.3575 C.ar    1  UNL1        0.0000
     10 C          -2.8730    0.2912    3.7075 C.ar    1  UNL1        0.0000
     11 S          -4.3201    0.3362    4.6333 S.2     1  UNL1        0.0000
     12 C          -5.3045    0.2202    3.2321 C.ar    1  UNL1        0.0000
     13 C          -4.5467    0.1494    2.0878 C.ar    1  UNL1        0.0000
     14 C          -5.0677    0.0484    0.8009 C.ar    1  UNL1        0.0000
     15 C          -6.4722   -0.0025    0.3987 C.2     1  UNL1        0.0000
     16 C          -6.6333   -0.1018   -0.9324 C.2     1  UNL1        0.0000
     17 SI         -5.0114   -0.1457   -1.8744 Si      1  UNL1        0.0000
     18 C          -4.0617   -0.0099   -0.2190 C.ar    1  UNL1        0.0000
     19 C          -2.6366    0.0291    0.0104 C.ar    1  UNL1        0.0000
     20 C          -1.6879   -0.0318   -1.0354 C.ar    1  UNL1        0.0000
     21 C          -0.2995    0.0073   -0.8060 C.ar    1  UNL1        0.0000
     22 C           0.7026   -0.0570   -1.8967 C.ar    1  UNL1        0.0000
     23 C           0.4447   -0.1610   -3.2180 C.2     1  UNL1        0.0000
     24 C           3.9804    0.1820    0.2590 C.ar    1  UNL1        0.0000
     25 C           4.6691    1.4087    0.3749 C.ar    1  UNL1        0.0000
     26 C           6.0246    1.4985    0.7678 C.ar    1  UNL1        0.0000
     27 C           6.8093    0.3732    1.0756 C.ar    1  UNL1        0.0000
     28 C           6.1712   -0.8875    0.9728 C.ar    1  UNL1        0.0000
     29 N           6.7454   -2.0748    1.2201 N.ar    1  UNL1        0.0000
     30 S           5.5770   -3.2241    0.9530 S.2     1  UNL1        0.0000
     31 N           4.2929   -2.2711    0.5157 N.ar    1  UNL1        0.0000
     32 C           4.7220   -0.9968    0.5549 C.ar    1  UNL1        0.0000
     33 H           2.1854    0.9769   -5.0799 H       1  UNL1        0.0000
     34 H           2.2195   -1.5239   -4.8925 H       1  UNL1        0.0000
     35 H           4.0516   -0.0707   -2.6152 H       1  UNL1        0.0000
     36 H           1.9240    0.2450    1.8495 H       1  UNL1        0.0000
     37 H          -0.3411    0.2503    2.5935 H       1  UNL1        0.0000
     38 H          -1.9270    0.3417    4.2263 H       1  UNL1        0.0000
     39 H          -6.3796    0.2112    3.3408 H       1  UNL1        0.0000
     40 H          -7.2866    0.0362    1.1081 H       1  UNL1        0.0000
     41 H          -7.5753   -0.1549   -1.4566 H       1  UNL1        0.0000
     42 H          -4.7837   -1.4479   -2.5489 H       1  UNL1        0.0000
     43 H          -4.8217    1.0521   -2.7301 H       1  UNL1        0.0000
     44 H          -2.0328   -0.1131   -2.0611 H       1  UNL1        0.0000
     45 H          -0.5093   -0.2153   -3.7141 H       1  UNL1        0.0000
     46 H           4.1341    2.3321    0.1481 H       1  UNL1        0.0000
     47 H           6.4824    2.4861    0.8330 H       1  UNL1        0.0000
     48 H           7.8473    0.4574    1.3744 H       1  UNL1        0.0000
@<TRIPOS>BOND
     1     1     2    1
     2     2     3    2
     3     3     4   ar
     4     4     5   ar
     5     5     6   ar
     6     6     7   ar
     7     7     8   ar
     8     8     9   ar
     9     9    10   ar
    10    10    11   ar
    11    11    12   ar
    12    12    13   ar
    13    13    14   ar
    14    14    15    1
    15    15    16    2
    16    16    17    1
    17    17    18    1
    18    18    19   ar
    19    19    20   ar
    20    20    21   ar
    21    21    22   ar
    22    22    23    2
    23     4    24    1
    24    24    25   ar
    25    25    26   ar
    26    26    27   ar
    27    27    28   ar
    28    28    29   ar
    29    29    30   ar
    30    30    31   ar
    31    31    32   ar
    32    23     1    1
    33    32    24   ar
    34    22     3   ar
    35    32    28   ar
    36    21     6   ar
    37    19     8   ar
    38    13     9   ar
    39    18    14   ar
    40     1    33    1
    41     1    34    1
    42     2    35    1
    43     5    36    1
    44     7    37    1
    45    10    38    1
    46    12    39    1
    47    15    40    1
    48    16    41    1
    49    17    42    1
    50    17    43    1
    51    20    44    1
    52    23    45    1
    53    25    46    1
    54    26    47    1
    55    27    48    1
