@<TRIPOS>MOLECULE
*****
 40 47 0 0 0
SMALL
GASTEIGER

@<TRIPOS>ATOM
      1 C          -2.3632   -3.2722   -0.3952 C.3     1  UNL1       -0.0148
      2 C          -3.2948   -2.1534   -0.0422 C.2     1  UNL1       -0.0718
      3 C          -2.5996   -1.0144    0.0759 C.ar    1  UNL1       -0.0094
      4 C          -3.0169    0.2989    0.3956 C.ar    1  UNL1        0.0401
      5 C          -4.3065    0.7711    0.6780 C.ar    1  UNL1        0.1501
      6 O          -5.5413    0.1932    0.7448 O.2     1  UNL1       -0.4617
      7 C          -6.3868    1.2078    1.0697 C.ar    1  UNL1        0.0937
      8 C          -5.7436    2.4120    1.2133 C.ar    1  UNL1       -0.0095
      9 C          -4.3874    2.0957    0.9516 C.ar    1  UNL1        0.0585
     10 S          -2.8263    2.8416    0.8696 S.2     1  UNL1       -0.0843
     11 C          -2.0888    1.3332    0.4642 C.ar    1  UNL1        0.0339
     12 C          -0.6399    1.1307    0.2110 C.ar    1  UNL1        0.0253
     13 C           0.3506    2.1545    0.2690 C.ar    1  UNL1        0.1092
     14 N           0.1792    3.4573    0.5551 N.ar    1  UNL1       -0.1901
     15 S           1.6546    4.1918    0.4959 S.2     1  UNL1        0.1165
     16 N           2.6122    2.9093    0.0863 N.ar    1  UNL1       -0.1901
     17 C           1.8124    1.8322   -0.0146 C.ar    1  UNL1        0.1083
     18 C           2.2352    0.5103   -0.3433 C.ar    1  UNL1        0.0145
     19 C           1.2036   -0.4575   -0.3833 C.ar    1  UNL1       -0.0434
     20 C          -0.1647   -0.1840   -0.1215 C.ar    1  UNL1       -0.0066
     21 C          -1.1809   -1.2687   -0.1835 C.ar    1  UNL1       -0.0133
     22 C          -1.0311   -2.5773   -0.4572 C.2     1  UNL1       -0.0719
     23 C           3.6353    0.2011   -0.6157 C.ar    1  UNL1        0.0305
     24 C           4.4624    0.9225   -1.4928 C.ar    1  UNL1        0.0375
     25 N           5.7799    0.6871   -1.8116 N.ar    1  UNL1       -0.2604
     26 C           6.4585   -0.3479   -1.2412 C.ar    1  UNL1        0.0557
     27 C           5.7683   -1.1667   -0.3282 C.ar    1  UNL1        0.1185
     28 N           6.2672   -2.2267    0.3279 N.ar    1  UNL1       -0.1892
     29 S           5.0384   -2.8129    1.2749 S.2     1  UNL1        0.1165
     30 N           3.8169   -1.7635    0.8801 N.ar    1  UNL1       -0.1901
     31 C           4.3205   -0.8862   -0.0092 C.ar    1  UNL1        0.1105
     32 H          -2.3666   -4.0475    0.3765 H       1  UNL1        0.0350
     33 H          -2.6225   -3.7122   -1.3625 H       1  UNL1        0.0350
     34 H          -4.3601   -2.2645    0.0953 H       1  UNL1        0.0581
     35 H          -7.4242    0.9151    1.1643 H       1  UNL1        0.1030
     36 H          -6.1774    3.3676    1.4660 H       1  UNL1        0.0660
     37 H           1.4886   -1.4803   -0.6336 H       1  UNL1        0.0631
     38 H          -0.1125   -3.0939   -0.6878 H       1  UNL1        0.0581
     39 H           4.0566    1.7860   -2.0236 H       1  UNL1        0.0836
     40 H           7.4945   -0.4893   -1.5183 H       1  UNL1        0.0852
@<TRIPOS>BOND
     1     1     2    1
     2     2     3    2
     3     3     4   ar
     4     4     5   ar
     5     5     6   ar
     6     6     7   ar
     7     7     8   ar
     8     8     9   ar
     9     9    10   ar
    10    10    11   ar
    11    11    12   ar
    12    12    13   ar
    13    13    14   ar
    14    14    15   ar
    15    15    16   ar
    16    16    17   ar
    17    17    18   ar
    18    18    19   ar
    19    19    20   ar
    20    20    21   ar
    21    21    22    2
    22    18    23    1
    23    23    24   ar
    24    24    25   ar
    25    25    26   ar
    26    26    27   ar
    27    27    28   ar
    28    28    29   ar
    29    29    30   ar
    30    30    31   ar
    31    22     1    1
    32    31    23   ar
    33    21     3   ar
    34    31    27   ar
    35    11     4   ar
    36    20    12   ar
    37     9     5   ar
    38    17    13   ar
    39     1    32    1
    40     1    33    1
    41     2    34    1
    42     7    35    1
    43     8    36    1
    44    19    37    1
    45    22    38    1
    46    24    39    1
    47    26    40    1
