@<TRIPOS>MOLECULE
*****
 38 43 0 0 0
SMALL
GASTEIGER

@<TRIPOS>ATOM
      1 C          -0.9361    3.8802    0.7637 C.3     1  UNL1       -0.0148
      2 C           0.3979    3.2621    0.5044 C.2     1  UNL1       -0.0719
      3 C           0.2358    1.9553    0.2616 C.ar    1  UNL1       -0.0120
      4 C           1.2078    0.9419    0.1000 C.ar    1  UNL1        0.0083
      5 C           2.6131    0.9727    0.0281 C.ar    1  UNL1       -0.0260
      6 C           3.0411   -0.3376   -0.1062 C.ar    1  UNL1        0.0728
      7 N           1.9162   -1.1373   -0.1111 N.ar    1  UNL1       -0.3520
      8 C           0.7848   -0.3707    0.0214 C.ar    1  UNL1        0.0554
      9 C          -0.6191   -0.8158    0.0310 C.ar    1  UNL1        0.0073
     10 C          -0.9417   -2.1729   -0.0274 C.ar    1  UNL1       -0.0514
     11 C          -2.2728   -2.5725   -0.0880 C.ar    1  UNL1       -0.0533
     12 C          -3.3053   -1.6303   -0.1494 C.ar    1  UNL1       -0.0144
     13 C          -4.6277   -2.0751   -0.2737 C.ar    1  UNL1       -0.0359
     14 C          -5.6420   -1.1453   -0.3921 C.ar    1  UNL1        0.0281
     15 N          -5.4275    0.1785   -0.4148 N.ar    1  UNL1       -0.2626
     16 C          -4.1378    0.5861   -0.2863 C.ar    1  UNL1        0.0359
     17 C          -3.0144   -0.2437   -0.1072 C.ar    1  UNL1        0.0086
     18 C          -1.6552    0.1773    0.0658 C.ar    1  UNL1        0.0007
     19 C          -1.1941    1.5935    0.2865 C.ar    1  UNL1       -0.0128
     20 C          -1.8677    2.7063    0.6381 C.2     1  UNL1       -0.0719
     21 C           4.3793   -0.8404   -0.2232 C.ar    1  UNL1        0.1243
     22 N           5.4250   -0.0406   -0.2109 N.ar    1  UNL1       -0.2459
     23 C           6.5836   -0.7804   -0.3391 C.ar    1  UNL1        0.0355
     24 C           6.4104   -2.1424   -0.4480 C.ar    1  UNL1       -0.0042
     25 S           4.7392   -2.5158   -0.3885 S.2     1  UNL1       -0.0742
     26 H          -1.1704    4.6516    0.0245 H       1  UNL1        0.0350
     27 H          -0.9815    4.3077    1.7698 H       1  UNL1        0.0350
     28 H           1.3400    3.7828    0.5758 H       1  UNL1        0.0581
     29 H           3.2600    1.8398    0.0687 H       1  UNL1        0.0646
     30 H           1.9370   -2.1421   -0.2075 H       1  UNL1        0.1660
     31 H          -0.1733   -2.9391   -0.0257 H       1  UNL1        0.0624
     32 H          -2.4943   -3.6378   -0.1241 H       1  UNL1        0.0624
     33 H          -4.8728   -3.1322   -0.2910 H       1  UNL1        0.0639
     34 H          -6.6787   -1.4529   -0.4904 H       1  UNL1        0.0830
     35 H          -4.0427    1.6595   -0.3864 H       1  UNL1        0.0836
     36 H          -2.9169    2.8092    0.8549 H       1  UNL1        0.0581
     37 H           7.5385   -0.2691   -0.3472 H       1  UNL1        0.0835
     38 H           7.1623   -2.9103   -0.5563 H       1  UNL1        0.0709
@<TRIPOS>BOND
     1     1     2    1
     2     2     3    2
     3     3     4   ar
     4     4     5   ar
     5     5     6   ar
     6     6     7   ar
     7     7     8   ar
     8     8     9   ar
     9     9    10   ar
    10    10    11   ar
    11    11    12   ar
    12    12    13   ar
    13    13    14   ar
    14    14    15   ar
    15    15    16   ar
    16    16    17   ar
    17    17    18   ar
    18    18    19   ar
    19    19    20    2
    20     6    21    1
    21    21    22   ar
    22    22    23   ar
    23    23    24   ar
    24    24    25   ar
    25    20     1    1
    26    25    21   ar
    27    19     3   ar
    28     8     4   ar
    29    18     9   ar
    30    17    12   ar
    31     1    26    1
    32     1    27    1
    33     2    28    1
    34     5    29    1
    35     7    30    1
    36    10    31    1
    37    11    32    1
    38    13    33    1
    39    14    34    1
    40    16    35    1
    41    20    36    1
    42    23    37    1
    43    24    38    1
