@<TRIPOS>MOLECULE
*****
 44 50 0 0 0
SMALL
GASTEIGER

@<TRIPOS>ATOM
      1 C          -0.8695    3.6325    0.8927 C.3     1  UNL1       -0.0148
      2 C           0.5019    3.1890    0.4906 C.2     1  UNL1       -0.0719
      3 C           0.4785    1.8746    0.2352 C.ar    1  UNL1       -0.0120
      4 C           1.5459    0.9709    0.0167 C.ar    1  UNL1        0.0084
      5 C           2.9289    1.1486   -0.1720 C.ar    1  UNL1       -0.0266
      6 C           3.4842   -0.1125   -0.3067 C.ar    1  UNL1        0.0639
      7 N           2.4636   -1.0313   -0.1698 N.ar    1  UNL1       -0.3525
      8 C           1.2693   -0.3837    0.0283 C.ar    1  UNL1        0.0568
      9 C          -0.0725   -0.9674    0.1786 C.ar    1  UNL1        0.0253
     10 C          -0.2958   -2.3291    0.2769 C.ar    1  UNL1        0.0380
     11 N          -1.5166   -2.9030    0.3613 N.ar    1  UNL1       -0.2543
     12 C          -2.6025   -2.1295    0.2514 C.ar    1  UNL1        0.0722
     13 C          -3.8426   -2.8293    0.2773 C.ar    1  UNL1       -0.0351
     14 C          -5.1276   -2.2724    0.0961 C.ar    1  UNL1       -0.0506
     15 C          -5.0110   -0.9246   -0.1724 C.ar    1  UNL1        0.0001
     16 C          -6.0526   -0.1074   -0.5259 C.ar    1  UNL1        0.0094
     17 N          -5.5056    1.1183   -0.8241 N.ar    1  UNL1       -0.3659
     18 C          -4.1347    1.0723   -0.6740 C.ar    1  UNL1        0.0101
     19 C          -3.7986   -0.1689   -0.1853 C.ar    1  UNL1        0.0092
     20 C          -2.4979   -0.7007    0.0963 C.ar    1  UNL1        0.0178
     21 C          -1.2002   -0.1045    0.1975 C.ar    1  UNL1        0.0028
     22 C          -0.8906    1.3478    0.3721 C.ar    1  UNL1       -0.0127
     23 C          -1.6548    2.3528    0.8369 C.2     1  UNL1       -0.0719
     24 C           4.8508   -0.4750   -0.5182 C.ar    1  UNL1        0.0629
     25 C           5.9995    0.2005   -0.1520 C.ar    1  UNL1       -0.0350
     26 C           7.1115   -0.5602   -0.5884 C.ar    1  UNL1       -0.0438
     27 C           6.6172   -1.6744   -1.2261 C.ar    1  UNL1        0.0022
     28 N           5.2480   -1.6095   -1.1861 N.ar    1  UNL1       -0.3595
     29 H          -1.2708    4.3750    0.1971 H       1  UNL1        0.0350
     30 H          -0.8651    4.0419    1.9073 H       1  UNL1        0.0350
     31 H           1.3793    3.8162    0.5103 H       1  UNL1        0.0581
     32 H           3.4691    2.0848   -0.2162 H       1  UNL1        0.0645
     33 H           2.5892   -2.0320   -0.1873 H       1  UNL1        0.1660
     34 H           0.5223   -3.0411    0.3058 H       1  UNL1        0.0836
     35 H          -3.7904   -3.9093    0.4325 H       1  UNL1        0.0639
     36 H          -6.0383   -2.8525    0.1005 H       1  UNL1        0.0625
     37 H          -7.1144   -0.2827   -0.6341 H       1  UNL1        0.0813
     38 H          -6.0238    1.9188   -1.1625 H       1  UNL1        0.1648
     39 H          -3.5445    1.9296   -0.9628 H       1  UNL1        0.0813
     40 H          -2.6774    2.2816    1.1709 H       1  UNL1        0.0581
     41 H           6.0343    1.1400    0.3844 H       1  UNL1        0.0639
     42 H           8.1575   -0.3158   -0.4565 H       1  UNL1        0.0633
     43 H           7.1189   -2.5001   -1.7123 H       1  UNL1        0.0807
     44 H           4.6277   -2.2781   -1.6198 H       1  UNL1        0.1654
@<TRIPOS>BOND
     1     1     2    1
     2     2     3    2
     3     3     4   ar
     4     4     5   ar
     5     5     6   ar
     6     6     7   ar
     7     7     8   ar
     8     8     9   ar
     9     9    10   ar
    10    10    11   ar
    11    11    12   ar
    12    12    13   ar
    13    13    14   ar
    14    14    15   ar
    15    15    16   ar
    16    16    17   ar
    17    17    18   ar
    18    18    19   ar
    19    19    20   ar
    20    20    21   ar
    21    21    22   ar
    22    22    23    2
    23     6    24    1
    24    24    25   ar
    25    25    26   ar
    26    26    27   ar
    27    27    28   ar
    28    23     1    1
    29    28    24   ar
    30    22     3   ar
    31     8     4   ar
    32    21     9   ar
    33    20    12   ar
    34    19    15   ar
    35     1    29    1
    36     1    30    1
    37     2    31    1
    38     5    32    1
    39     7    33    1
    40    10    34    1
    41    13    35    1
    42    14    36    1
    43    16    37    1
    44    17    38    1
    45    18    39    1
    46    23    40    1
    47    25    41    1
    48    26    42    1
    49    27    43    1
    50    28    44    1
