@<TRIPOS>MOLECULE
*****
 41 47 0 0 0
SMALL
GASTEIGER

@<TRIPOS>ATOM
      1 C           3.7329    2.9067   -1.1799 C.3     1  UNL1       -0.0148
      2 C           2.2320    2.9003   -1.1655 C.2     1  UNL1       -0.0719
      3 C           1.8006    1.7669   -0.5978 C.ar    1  UNL1       -0.0119
      4 C           0.4861    1.2883   -0.3496 C.ar    1  UNL1        0.0083
      5 C          -0.7871    1.8325   -0.6053 C.ar    1  UNL1       -0.0275
      6 C          -1.7212    0.9146   -0.1525 C.ar    1  UNL1        0.0547
      7 N          -1.0276   -0.1520    0.3827 N.ar    1  UNL1       -0.3532
      8 C           0.3230    0.0549    0.2648 C.ar    1  UNL1        0.0569
      9 C           1.4233   -0.8213    0.6965 C.ar    1  UNL1        0.0282
     10 C           1.2487   -2.0560    1.3155 C.ar    1  UNL1        0.0382
     11 N           2.2393   -2.8889    1.7233 N.ar    1  UNL1       -0.2511
     12 C           3.4932   -2.4277    1.4834 C.ar    1  UNL1        0.1095
     13 C           4.7437   -3.0192    1.7695 C.ar    1  UNL1        0.0022
     14 C           5.6974   -2.1343    1.3203 C.ar    1  UNL1        0.0947
     15 O           5.1156   -1.0325    0.7741 O.2     1  UNL1       -0.4607
     16 C           3.7649   -1.2069    0.8716 C.ar    1  UNL1        0.1612
     17 C           2.7437   -0.3614    0.4568 C.ar    1  UNL1        0.0373
     18 C           2.9497    0.9429   -0.1957 C.ar    1  UNL1       -0.0098
     19 C           4.0759    1.5953   -0.5293 C.2     1  UNL1       -0.0718
     20 C          -3.1545    0.9703   -0.1643 C.ar    1  UNL1        0.0429
     21 S          -4.0033    2.4730    0.0105 S.2     1  UNL1       -0.0943
     22 C          -5.5569    1.7233   -0.0561 C.ar    1  UNL1       -0.0196
     23 C          -5.4251    0.3732   -0.2232 C.ar    1  UNL1       -0.0288
     24 C          -6.3297   -0.8020   -0.3693 C.3     1  UNL1       -0.0081
     25 C          -5.3023   -1.9227   -0.5450 C.2     1  UNL1       -0.0791
     26 C          -4.0380   -1.4445   -0.4975 C.2     1  UNL1       -0.0568
     27 C          -4.0705   -0.0388   -0.2913 C.ar    1  UNL1       -0.0057
     28 H           4.1286    3.7471   -0.6020 H       1  UNL1        0.0350
     29 H           4.1166    2.9495   -2.2035 H       1  UNL1        0.0350
     30 H           1.6116    3.6920   -1.5550 H       1  UNL1        0.0581
     31 H          -1.0083    2.7824   -1.0743 H       1  UNL1        0.0645
     32 H          -1.4677   -0.9483    0.8200 H       1  UNL1        0.1659
     33 H           0.2538   -2.4427    1.5179 H       1  UNL1        0.0836
     34 H           4.9203   -3.9722    2.2445 H       1  UNL1        0.0670
     35 H           6.7786   -2.1393    1.3149 H       1  UNL1        0.1030
     36 H           5.0867    1.2544   -0.3665 H       1  UNL1        0.0581
     37 H          -6.4567    2.3169    0.0227 H       1  UNL1        0.0696
     38 H          -6.9676   -0.7171   -1.2533 H       1  UNL1        0.0356
     39 H          -6.9345   -0.9652    0.5269 H       1  UNL1        0.0356
     40 H          -5.5724   -2.9560   -0.7058 H       1  UNL1        0.0575
     41 H          -3.1429   -2.0355   -0.6260 H       1  UNL1        0.0621
@<TRIPOS>BOND
     1     1     2    1
     2     2     3    2
     3     3     4   ar
     4     4     5   ar
     5     5     6   ar
     6     6     7   ar
     7     7     8   ar
     8     8     9   ar
     9     9    10   ar
    10    10    11   ar
    11    11    12   ar
    12    12    13   ar
    13    13    14   ar
    14    14    15   ar
    15    15    16   ar
    16    16    17   ar
    17    17    18   ar
    18    18    19    2
    19     6    20    1
    20    20    21   ar
    21    21    22   ar
    22    22    23   ar
    23    23    24    1
    24    24    25    1
    25    25    26    2
    26    26    27    1
    27    19     1    1
    28    27    20   ar
    29    18     3   ar
    30    27    23   ar
    31     8     4   ar
    32    17     9   ar
    33    16    12   ar
    34     1    28    1
    35     1    29    1
    36     2    30    1
    37     5    31    1
    38     7    32    1
    39    10    33    1
    40    13    34    1
    41    14    35    1
    42    19    36    1
    43    22    37    1
    44    24    38    1
    45    24    39    1
    46    25    40    1
    47    26    41    1
