@<TRIPOS>MOLECULE
*****
 35 39 0 0 0
SMALL
GASTEIGER

@<TRIPOS>ATOM
      1 C          -3.6377    2.2415    1.4455 C.3     1  UNL1       -0.0148
      2 C          -2.1363    2.2564    1.4421 C.2     1  UNL1       -0.0719
      3 C          -1.6853    1.1923    0.7668 C.ar    1  UNL1       -0.0119
      4 C          -0.3655    0.7546    0.4793 C.ar    1  UNL1        0.0098
      5 C           0.9142    1.2566    0.7851 C.ar    1  UNL1       -0.0283
      6 C           1.8434    0.3863    0.2280 C.ar    1  UNL1        0.0438
      7 N           1.1369   -0.6201   -0.4010 N.ar    1  UNL1       -0.3527
      8 C          -0.2051   -0.4056   -0.2542 C.ar    1  UNL1        0.0738
      9 C          -1.2865   -1.2375   -0.7698 C.ar    1  UNL1        0.0953
     10 N          -0.9203   -2.3379   -1.4673 N.ar    1  UNL1       -0.2529
     11 C          -1.9404   -3.0906   -1.9335 C.ar    1  UNL1        0.0284
     12 C          -3.2859   -2.7957   -1.7359 C.ar    1  UNL1       -0.0430
     13 C          -3.6296   -1.6527   -1.0117 C.ar    1  UNL1       -0.0505
     14 C          -2.6177   -0.8414   -0.5085 C.ar    1  UNL1        0.0098
     15 C          -2.8231    0.3975    0.2750 C.ar    1  UNL1       -0.0119
     16 C          -3.9614    0.9970    0.6630 C.2     1  UNL1       -0.0719
     17 C           3.2593    0.3387    0.1857 C.2     1  UNL1       -0.0203
     18 C           4.0165    1.2832    0.7752 C.2     1  UNL1       -0.0566
     19 C           5.4153    0.9974    0.5829 C.2     1  UNL1       -0.0650
     20 C           5.5451   -0.1289   -0.1289 C.2     1  UNL1       -0.0796
     21 C           4.1865   -0.6723   -0.4602 C.3     1  UNL1       -0.0072
     22 H          -4.0282    2.1760    2.4654 H       1  UNL1        0.0350
     23 H          -4.0412    3.1307    0.9523 H       1  UNL1        0.0350
     24 H          -1.5282    3.0122    1.9138 H       1  UNL1        0.0581
     25 H           1.1433    2.1513    1.3477 H       1  UNL1        0.0645
     26 H           1.5221   -1.4092   -0.9022 H       1  UNL1        0.1660
     27 H          -1.6435   -3.9736   -2.4932 H       1  UNL1        0.0830
     28 H          -4.0540   -3.4467   -2.1401 H       1  UNL1        0.0633
     29 H          -4.6753   -1.4119   -0.8508 H       1  UNL1        0.0625
     30 H          -4.9665    0.6621    0.4604 H       1  UNL1        0.0581
     31 H           3.6668    2.1458    1.3225 H       1  UNL1        0.0621
     32 H           6.2174    1.6114    0.9635 H       1  UNL1        0.0615
     33 H           6.4777   -0.5845   -0.4244 H       1  UNL1        0.0575
     34 H           4.0502   -1.6691   -0.0288 H       1  UNL1        0.0356
     35 H           4.0372   -0.7131   -1.5438 H       1  UNL1        0.0356
@<TRIPOS>BOND
     1     1     2    1
     2     2     3    2
     3     3     4   ar
     4     4     5   ar
     5     5     6   ar
     6     6     7   ar
     7     7     8   ar
     8     8     9   ar
     9     9    10   ar
    10    10    11   ar
    11    11    12   ar
    12    12    13   ar
    13    13    14   ar
    14    14    15   ar
    15    15    16    2
    16     6    17    1
    17    17    18    2
    18    18    19    1
    19    19    20    2
    20    20    21    1
    21    16     1    1
    22    21    17    1
    23    15     3   ar
    24     8     4   ar
    25    14     9   ar
    26     1    22    1
    27     1    23    1
    28     2    24    1
    29     5    25    1
    30     7    26    1
    31    11    27    1
    32    12    28    1
    33    13    29    1
    34    16    30    1
    35    18    31    1
    36    19    32    1
    37    20    33    1
    38    21    34    1
    39    21    35    1
