@<TRIPOS>MOLECULE
*****
 47 53 0 0 0
SMALL
GASTEIGER

@<TRIPOS>ATOM
      1 C           1.9602   -3.8520    0.7612 C.3     1  UNL1        0.0000
      2 C           0.6662   -3.1053    0.7630 C.2     1  UNL1        0.0000
      3 C           0.8808   -1.8146    0.4508 C.ar    1  UNL1        0.0000
      4 C          -0.1013   -0.7334    0.2502 C.ar    1  UNL1        0.0000
      5 C          -1.4539   -0.9689    0.5102 C.ar    1  UNL1        0.0000
      6 C          -2.4229    0.0008    0.2548 C.ar    1  UNL1        0.0000
      7 C          -3.8050   -0.3620    0.5784 C.2     1  UNL1        0.0000
      8 C          -4.4419   -0.1520    1.7486 C.2     1  UNL1        0.0000
      9 C          -5.8137   -0.6335    1.7976 C.2     1  UNL1        0.0000
     10 C          -6.2552   -1.2274    0.6735 C.2     1  UNL1        0.0000
     11 SI         -4.9230   -1.2515   -0.6621 Si      1  UNL1        0.0000
     12 C          -2.0499    1.2495   -0.2912 C.ar    1  UNL1        0.0000
     13 C          -3.0331    2.2353   -0.5665 C.ar    1  UNL1        0.0000
     14 C          -2.7231    3.4582   -1.1491 C.ar    1  UNL1        0.0000
     15 C          -1.4134    3.7234   -1.4826 C.ar    1  UNL1        0.0000
     16 C          -0.4235    2.7750   -1.2059 C.ar    1  UNL1        0.0000
     17 C          -0.6741    1.5205   -0.5773 C.ar    1  UNL1        0.0000
     18 C           0.3402    0.5318   -0.2429 C.ar    1  UNL1        0.0000
     19 C           1.8430    0.7665   -0.3466 C.ar    1  UNL1        0.0000
     20 N           2.2467    2.0340   -0.6080 N.ar    1  UNL1        0.0000
     21 C           3.5579    2.3596   -0.6794 C.ar    1  UNL1        0.0000
     22 C           4.5413    1.4008   -0.4517 C.ar    1  UNL1        0.0000
     23 C           5.9628    1.4422   -0.4395 C.ar    1  UNL1        0.0000
     24 C           6.4092    0.1856   -0.1145 C.ar    1  UNL1        0.0000
     25 N           5.3102   -0.6099    0.0718 N.ar    1  UNL1        0.0000
     26 C           4.1460    0.0930   -0.1545 C.ar    1  UNL1        0.0000
     27 C           2.7847   -0.2635   -0.1044 C.ar    1  UNL1        0.0000
     28 C           2.3068   -1.6034    0.2358 C.ar    1  UNL1        0.0000
     29 C           2.9403   -2.7800    0.3916 C.2     1  UNL1        0.0000
     30 H           1.9531   -4.6527    0.0159 H       1  UNL1        0.0000
     31 H           2.1813   -4.2679    1.7484 H       1  UNL1        0.0000
     32 H          -0.2827   -3.5816    0.9532 H       1  UNL1        0.0000
     33 H          -1.7730   -1.9234    0.9218 H       1  UNL1        0.0000
     34 H          -3.9923    0.3353    2.6057 H       1  UNL1        0.0000
     35 H          -6.4141   -0.5093    2.6906 H       1  UNL1        0.0000
     36 H          -7.2321   -1.6501    0.5009 H       1  UNL1        0.0000
     37 H          -5.3019   -0.4064   -1.8218 H       1  UNL1        0.0000
     38 H          -4.4711   -2.6345   -0.9587 H       1  UNL1        0.0000
     39 H          -4.0796    2.0571   -0.3267 H       1  UNL1        0.0000
     40 H          -3.5037    4.1860   -1.3489 H       1  UNL1        0.0000
     41 H          -1.1444    4.6624   -1.9582 H       1  UNL1        0.0000
     42 H           0.5746    3.0505   -1.5284 H       1  UNL1        0.0000
     43 H           3.7839    3.3953   -0.9061 H       1  UNL1        0.0000
     44 H           6.5872    2.3044   -0.6348 H       1  UNL1        0.0000
     45 H           7.4086   -0.2089    0.0124 H       1  UNL1        0.0000
     46 H           5.3593   -1.5755    0.3540 H       1  UNL1        0.0000
     47 H           3.9846   -2.9996    0.2693 H       1  UNL1        0.0000
@<TRIPOS>BOND
     1     1     2    1
     2     2     3    2
     3     3     4   ar
     4     4     5   ar
     5     5     6   ar
     6     6     7    1
     7     7     8    2
     8     8     9    1
     9     9    10    2
    10    10    11    1
    11     6    12   ar
    12    12    13   ar
    13    13    14   ar
    14    14    15   ar
    15    15    16   ar
    16    16    17   ar
    17    17    18   ar
    18    18    19   ar
    19    19    20   ar
    20    20    21   ar
    21    21    22   ar
    22    22    23   ar
    23    23    24   ar
    24    24    25   ar
    25    25    26   ar
    26    26    27   ar
    27    27    28   ar
    28    28    29    2
    29    29     1    1
    30    28     3   ar
    31    18     4   ar
    32    27    19   ar
    33    11     7    1
    34    17    12   ar
    35    26    22   ar
    36     1    30    1
    37     1    31    1
    38     2    32    1
    39     5    33    1
    40     8    34    1
    41     9    35    1
    42    10    36    1
    43    11    37    1
    44    11    38    1
    45    13    39    1
    46    14    40    1
    47    15    41    1
    48    16    42    1
    49    21    43    1
    50    23    44    1
    51    24    45    1
    52    25    46    1
    53    29    47    1
