@<TRIPOS>MOLECULE
*****
 46 53 0 0 0
SMALL
GASTEIGER

@<TRIPOS>ATOM
      1 C          -0.7862   -3.7901   -1.2198 C.3     1  UNL1        0.0000
      2 C           0.4227   -3.0118   -0.8268 C.2     1  UNL1        0.0000
      3 C           0.0732   -1.7556   -0.4976 C.ar    1  UNL1        0.0000
      4 C           0.9543   -0.6465   -0.0876 C.ar    1  UNL1        0.0000
      5 C           2.3705   -0.7967   -0.1400 C.ar    1  UNL1        0.0000
      6 C           3.2871    0.2513    0.0568 C.ar    1  UNL1        0.0000
      7 C           4.7392    0.0557    0.0051 C.ar    1  UNL1        0.0000
      8 C           5.4992   -1.0967   -0.1389 C.ar    1  UNL1        0.0000
      9 C           6.8694   -0.7380   -0.1249 C.ar    1  UNL1        0.0000
     10 C           6.9288    0.6253    0.0295 C.ar    1  UNL1        0.0000
     11 N           5.6457    1.0936    0.1090 N.ar    1  UNL1        0.0000
     12 C           2.6989    1.5329    0.2453 C.ar    1  UNL1        0.0000
     13 N           3.3589    2.7028    0.3692 N.ar    1  UNL1        0.0000
     14 S           2.2209    3.8951    0.4685 S.2     1  UNL1        0.0000
     15 N           0.8421    2.9969    0.3990 N.ar    1  UNL1        0.0000
     16 C           1.1847    1.6985    0.3208 C.ar    1  UNL1        0.0000
     17 C           0.2985    0.5738    0.2558 C.ar    1  UNL1        0.0000
     18 C          -1.1776    0.6536    0.3679 C.ar    1  UNL1        0.0000
     19 C          -1.9170    1.6245    1.0822 C.ar    1  UNL1        0.0000
     20 C          -1.4966    2.5386    2.0193 C.ar    1  UNL1        0.0000
     21 O          -2.5494    3.2790    2.4802 O.2     1  UNL1        0.0000
     22 C          -3.6735    2.8119    1.8667 C.ar    1  UNL1        0.0000
     23 C          -3.3394    1.7727    1.0410 C.ar    1  UNL1        0.0000
     24 C          -4.1878    0.9742    0.2995 C.ar    1  UNL1        0.0000
     25 C          -5.6333    1.1038    0.1597 C.2     1  UNL1        0.0000
     26 C          -6.1607    0.1425   -0.6153 C.2     1  UNL1        0.0000
     27 SI         -4.8757   -1.0641   -1.2513 Si      1  UNL1        0.0000
     28 C          -3.4989   -0.1146   -0.3332 C.ar    1  UNL1        0.0000
     29 C          -2.0690   -0.3313   -0.2425 C.ar    1  UNL1        0.0000
     30 C          -1.3802   -1.5934   -0.6448 C.ar    1  UNL1        0.0000
     31 C          -1.8762   -2.7786   -1.0479 C.2     1  UNL1        0.0000
     32 H          -0.9364   -4.6480   -0.5579 H       1  UNL1        0.0000
     33 H          -0.7221   -4.1309   -2.2572 H       1  UNL1        0.0000
     34 H           1.4128   -3.4391   -0.8300 H       1  UNL1        0.0000
     35 H           2.7803   -1.7767   -0.3759 H       1  UNL1        0.0000
     36 H           5.1159   -2.1032   -0.2427 H       1  UNL1        0.0000
     37 H           7.7177   -1.4039   -0.2161 H       1  UNL1        0.0000
     38 H           7.7695    1.3031    0.0911 H       1  UNL1        0.0000
     39 H           5.3776    2.0647    0.2271 H       1  UNL1        0.0000
     40 H          -0.5492    2.7884    2.4733 H       1  UNL1        0.0000
     41 H          -4.5953    3.2979    2.1521 H       1  UNL1        0.0000
     42 H          -6.1997    1.8964    0.6281 H       1  UNL1        0.0000
     43 H          -7.2031    0.0281   -0.8704 H       1  UNL1        0.0000
     44 H          -4.7313   -0.9964   -2.7267 H       1  UNL1        0.0000
     45 H          -5.1095   -2.4242   -0.7029 H       1  UNL1        0.0000
     46 H          -2.8999   -3.0656   -1.1969 H       1  UNL1        0.0000
@<TRIPOS>BOND
     1     1     2    1
     2     2     3    2
     3     3     4   ar
     4     4     5   ar
     5     5     6   ar
     6     6     7    1
     7     7     8   ar
     8     8     9   ar
     9     9    10   ar
    10    10    11   ar
    11     6    12   ar
    12    12    13   ar
    13    13    14   ar
    14    14    15   ar
    15    15    16   ar
    16    16    17   ar
    17    17    18   ar
    18    18    19   ar
    19    19    20   ar
    20    20    21   ar
    21    21    22   ar
    22    22    23   ar
    23    23    24   ar
    24    24    25    1
    25    25    26    2
    26    26    27    1
    27    27    28    1
    28    28    29   ar
    29    29    30   ar
    30    30    31    2
    31    31     1    1
    32    30     3   ar
    33    17     4   ar
    34    29    18   ar
    35    11     7   ar
    36    16    12   ar
    37    23    19   ar
    38    28    24   ar
    39     1    32    1
    40     1    33    1
    41     2    34    1
    42     5    35    1
    43     8    36    1
    44     9    37    1
    45    10    38    1
    46    11    39    1
    47    20    40    1
    48    22    41    1
    49    25    42    1
    50    26    43    1
    51    27    44    1
    52    27    45    1
    53    31    46    1
