@<TRIPOS>MOLECULE
*****
 47 54 0 0 0
SMALL
GASTEIGER

@<TRIPOS>ATOM
      1 C          -2.4758    3.5091    1.1804 C.3     1  UNL1       -0.0148
      2 C          -1.1807    2.8603    0.7915 C.2     1  UNL1       -0.0719
      3 C          -1.3894    1.5705    0.4722 C.ar    1  UNL1       -0.0132
      4 C          -0.4279    0.5327    0.0316 C.ar    1  UNL1       -0.0072
      5 C           0.9635    0.8661   -0.1035 C.ar    1  UNL1       -0.0450
      6 C           1.9710   -0.0370   -0.5085 C.ar    1  UNL1       -0.0084
      7 C           3.3617    0.3362   -0.6289 C.ar    1  UNL1       -0.0066
      8 C           3.9027    1.1315   -1.6742 C.ar    1  UNL1       -0.0533
      9 C           5.2920    1.5064   -1.7784 C.ar    1  UNL1       -0.0605
     10 C           6.2905    1.1345   -0.8482 C.ar    1  UNL1       -0.0510
     11 C           5.7369    0.3668    0.1665 C.ar    1  UNL1        0.0204
     12 C           6.3876   -0.1674    1.2457 C.ar    1  UNL1        0.0994
     13 O           5.4934   -0.8530    2.0232 O.2     1  UNL1       -0.4698
     14 C           4.2641   -0.7509    1.4284 C.ar    1  UNL1        0.1000
     15 C           4.3666   -0.0111    0.2779 C.ar    1  UNL1        0.0276
     16 C           1.4502   -1.3120   -0.7805 C.ar    1  UNL1       -0.0025
     17 C           2.2324   -2.3582   -1.2178 C.ar    1  UNL1       -0.0160
     18 S           1.3168   -3.7814   -1.4601 S.2     1  UNL1       -0.1038
     19 C          -0.1382   -3.0003   -0.9938 C.ar    1  UNL1       -0.0159
     20 C           0.0443   -1.6775   -0.6533 C.ar    1  UNL1       -0.0005
     21 C          -0.9750   -0.7803   -0.2378 C.ar    1  UNL1        0.0170
     22 C          -2.4276   -1.0737   -0.0799 C.ar    1  UNL1        0.0834
     23 N          -2.8547   -2.3355   -0.3525 N.ar    1  UNL1       -0.2535
     24 C          -4.1635   -2.6753   -0.2301 C.ar    1  UNL1        0.0390
     25 C          -5.0976   -1.7290    0.1798 C.ar    1  UNL1        0.0388
     26 C          -6.4988   -1.7186    0.4123 C.ar    1  UNL1       -0.0146
     27 C          -6.8139   -0.4417    0.8108 C.ar    1  UNL1        0.0932
     28 O          -5.7022    0.3356    0.8396 O.2     1  UNL1       -0.4622
     29 C          -4.6459   -0.4433    0.4550 C.ar    1  UNL1        0.1460
     30 C          -3.3116   -0.0642    0.3396 C.ar    1  UNL1        0.0512
     31 C          -2.8110    1.2748    0.6230 C.ar    1  UNL1       -0.0085
     32 C          -3.4513    2.3831    1.0308 C.2     1  UNL1       -0.0718
     33 H          -2.7204    4.3363    0.5078 H       1  UNL1        0.0350
     34 H          -2.4425    3.8690    2.2128 H       1  UNL1        0.0350
     35 H          -0.2415    3.3903    0.7847 H       1  UNL1        0.0581
     36 H           1.2834    1.8825    0.1267 H       1  UNL1        0.0630
     37 H           3.2298    1.4814   -2.4594 H       1  UNL1        0.0624
     38 H           5.5872    2.1174   -2.6329 H       1  UNL1        0.0618
     39 H           7.3283    1.4222   -0.9355 H       1  UNL1        0.0625
     40 H           7.4075   -0.1640    1.6029 H       1  UNL1        0.1035
     41 H           3.4559   -1.2512    1.9438 H       1  UNL1        0.1036
     42 H           3.2965   -2.3781   -1.4112 H       1  UNL1        0.0700
     43 H          -1.0407   -3.5912   -1.0097 H       1  UNL1        0.0700
     44 H          -4.4187   -3.7021   -0.4669 H       1  UNL1        0.0837
     45 H          -7.1918   -2.5406    0.3028 H       1  UNL1        0.0655
     46 H          -7.7343    0.0496    1.0952 H       1  UNL1        0.1030
     47 H          -4.5072    2.4815    1.2305 H       1  UNL1        0.0581
@<TRIPOS>BOND
     1     1     2    1
     2     2     3    2
     3     3     4   ar
     4     4     5   ar
     5     5     6   ar
     6     6     7    1
     7     7     8   ar
     8     8     9   ar
     9     9    10   ar
    10    10    11   ar
    11    11    12   ar
    12    12    13   ar
    13    13    14   ar
    14    14    15   ar
    15     6    16   ar
    16    16    17   ar
    17    17    18   ar
    18    18    19   ar
    19    19    20   ar
    20    20    21   ar
    21    21    22   ar
    22    22    23   ar
    23    23    24   ar
    24    24    25   ar
    25    25    26   ar
    26    26    27   ar
    27    27    28   ar
    28    28    29   ar
    29    29    30   ar
    30    30    31   ar
    31    31    32    2
    32    32     1    1
    33    31     3   ar
    34    21     4   ar
    35    30    22   ar
    36    15     7   ar
    37    20    16   ar
    38    29    25   ar
    39    15    11   ar
    40     1    33    1
    41     1    34    1
    42     2    35    1
    43     5    36    1
    44     8    37    1
    45     9    38    1
    46    10    39    1
    47    12    40    1
    48    14    41    1
    49    17    42    1
    50    19    43    1
    51    24    44    1
    52    26    45    1
    53    27    46    1
    54    32    47    1
