@<TRIPOS>MOLECULE
*****
 48 55 0 0 0
SMALL
GASTEIGER

@<TRIPOS>ATOM
      1 C           0.6727   -2.6452    3.8555 C.3     1  UNL1       -0.0148
      2 C           1.6623   -2.1383    2.8514 C.2     1  UNL1       -0.0719
      3 C           1.0330   -1.4046    1.9181 C.ar    1  UNL1       -0.0135
      4 C           1.5887   -0.6657    0.7664 C.ar    1  UNL1       -0.0086
      5 C           3.0181   -0.6273    0.5659 C.ar    1  UNL1       -0.0445
      6 C           3.6631    0.1438   -0.4239 C.ar    1  UNL1       -0.0001
      7 C           5.0970    0.2005   -0.6243 C.ar    1  UNL1        0.0394
      8 C           5.8485   -0.0329   -1.7609 C.ar    1  UNL1        0.0425
      9 N           7.2172    0.1159   -1.6269 N.ar    1  UNL1       -0.2551
     10 C           7.4894    0.4722   -0.3912 C.ar    1  UNL1        0.0652
     11 S           6.1497    0.6313    0.6619 S.2     1  UNL1       -0.0754
     12 C           2.7428    0.8958   -1.1533 C.ar    1  UNL1        0.0083
     13 C           3.0395    1.8361   -2.1102 C.ar    1  UNL1        0.0100
     14 N           1.8534    2.4055   -2.5016 N.ar    1  UNL1       -0.3659
     15 C           0.8080    1.8550   -1.7951 C.ar    1  UNL1        0.0100
     16 C           1.3106    0.8636   -0.9772 C.ar    1  UNL1        0.0083
     17 C           0.6265    0.0404   -0.0524 C.ar    1  UNL1       -0.0004
     18 C          -0.8469   -0.0900    0.1495 C.ar    1  UNL1       -0.0083
     19 C          -1.7959    0.3245   -0.7972 C.ar    1  UNL1       -0.0451
     20 C          -3.1913    0.2654   -0.5424 C.ar    1  UNL1       -0.0091
     21 C          -4.2439    0.7103   -1.3902 C.ar    1  UNL1       -0.0032
     22 C          -4.0645    1.2798   -2.6289 C.ar    1  UNL1       -0.0160
     23 S          -5.5617    1.7193   -3.3549 S.2     1  UNL1       -0.1039
     24 C          -6.4650    1.1465   -2.0125 C.ar    1  UNL1       -0.0166
     25 C          -5.6406    0.6301   -1.0463 C.ar    1  UNL1       -0.0103
     26 C          -6.1348    0.1067    0.1426 C.ar    1  UNL1       -0.0529
     27 C          -5.0944   -0.3434    0.9841 C.ar    1  UNL1       -0.0534
     28 C          -3.6886   -0.2746    0.6748 C.ar    1  UNL1       -0.0167
     29 C          -2.7436   -0.7710    1.5775 C.ar    1  UNL1       -0.0457
     30 C          -1.3567   -0.7138    1.3207 C.ar    1  UNL1       -0.0093
     31 C          -0.3931   -1.3772    2.2183 C.ar    1  UNL1       -0.0135
     32 C          -0.6169   -2.0856    3.3394 C.2     1  UNL1       -0.0719
     33 H           0.8954   -2.2661    4.8589 H       1  UNL1        0.0350
     34 H           0.6510   -3.7396    3.8691 H       1  UNL1        0.0350
     35 H           2.7191   -2.3409    2.9183 H       1  UNL1        0.0581
     36 H           3.6504   -1.2188    1.2226 H       1  UNL1        0.0630
     37 H           5.4438   -0.3124   -2.7252 H       1  UNL1        0.0841
     38 H           8.5005    0.6551   -0.0529 H       1  UNL1        0.0907
     39 H           3.9748    2.1860   -2.5243 H       1  UNL1        0.0813
     40 H           1.7642    3.1577   -3.1756 H       1  UNL1        0.1648
     41 H          -0.1792    2.2698   -1.9370 H       1  UNL1        0.0813
     42 H          -1.4767    0.6704   -1.7692 H       1  UNL1        0.0630
     43 H          -3.1481    1.4753   -3.1643 H       1  UNL1        0.0700
     44 H          -7.5440    1.2218   -2.0214 H       1  UNL1        0.0699
     45 H          -7.1793    0.0413    0.4132 H       1  UNL1        0.0624
     46 H          -5.3913   -0.7730    1.9416 H       1  UNL1        0.0624
     47 H          -3.0955   -1.2268    2.4984 H       1  UNL1        0.0630
     48 H          -1.5677   -2.2729    3.8108 H       1  UNL1        0.0581
@<TRIPOS>BOND
     1     1     2    1
     2     2     3    2
     3     3     4   ar
     4     4     5   ar
     5     5     6   ar
     6     6     7    1
     7     7     8   ar
     8     8     9   ar
     9     9    10   ar
    10    10    11   ar
    11     6    12   ar
    12    12    13   ar
    13    13    14   ar
    14    14    15   ar
    15    15    16   ar
    16    16    17   ar
    17    17    18   ar
    18    18    19   ar
    19    19    20   ar
    20    20    21   ar
    21    21    22   ar
    22    22    23   ar
    23    23    24   ar
    24    24    25   ar
    25    25    26   ar
    26    26    27   ar
    27    27    28   ar
    28    28    29   ar
    29    29    30   ar
    30    30    31   ar
    31    31    32    2
    32    32     1    1
    33    31     3   ar
    34    17     4   ar
    35    30    18   ar
    36    11     7   ar
    37    16    12   ar
    38    28    20   ar
    39    25    21   ar
    40     1    33    1
    41     1    34    1
    42     2    35    1
    43     5    36    1
    44     8    37    1
    45    10    38    1
    46    13    39    1
    47    14    40    1
    48    15    41    1
    49    19    42    1
    50    22    43    1
    51    24    44    1
    52    26    45    1
    53    27    46    1
    54    29    47    1
    55    32    48    1
