@<TRIPOS>MOLECULE
*****
 48 55 0 0 0
SMALL
GASTEIGER

@<TRIPOS>ATOM
      1 C           0.7761    3.5918   -1.3271 C.3     1  UNL1       -0.0148
      2 C          -0.5350    2.9137   -1.0869 C.2     1  UNL1       -0.0719
      3 C          -0.3243    1.6515   -0.6750 C.ar    1  UNL1       -0.0134
      4 C          -1.3044    0.5762   -0.4471 C.ar    1  UNL1       -0.0086
      5 C          -2.7137    0.8730   -0.3828 C.ar    1  UNL1       -0.0431
      6 C          -3.7212   -0.0835   -0.1230 C.ar    1  UNL1        0.0168
      7 C          -5.1324    0.2588   -0.0688 C.ar    1  UNL1        0.1088
      8 N          -5.6152    1.3113    0.5646 N.ar    1  UNL1       -0.2473
      9 C          -6.9806    1.3914    0.3798 C.ar    1  UNL1        0.0354
     10 C          -7.5293    0.4188   -0.4250 C.ar    1  UNL1       -0.0042
     11 S          -6.2966   -0.6330   -0.9779 S.2     1  UNL1       -0.0757
     12 C          -3.1654   -1.3378    0.1468 C.ar    1  UNL1        0.0097
     13 C          -3.8260   -2.4591    0.5918 C.ar    1  UNL1        0.0101
     14 N          -2.8821   -3.4323    0.8132 N.ar    1  UNL1       -0.3659
     15 C          -1.6246   -2.9407    0.5431 C.ar    1  UNL1        0.0100
     16 C          -1.7572   -1.6493    0.0833 C.ar    1  UNL1        0.0083
     17 C          -0.7398   -0.7379   -0.2759 C.ar    1  UNL1       -0.0004
     18 C           0.7221   -1.0016   -0.3698 C.ar    1  UNL1       -0.0083
     19 C           1.2457   -2.2749   -0.6264 C.ar    1  UNL1       -0.0528
     20 C           2.6208   -2.5317   -0.6060 C.ar    1  UNL1       -0.0534
     21 C           3.5437   -1.5468   -0.2558 C.ar    1  UNL1       -0.0167
     22 C           4.9315   -1.9194   -0.1716 C.ar    1  UNL1       -0.0534
     23 C           5.9786   -1.0678    0.2275 C.ar    1  UNL1       -0.0529
     24 C           5.4949    0.1793    0.5950 C.ar    1  UNL1       -0.0103
     25 C           6.3239    1.1399    1.1209 C.ar    1  UNL1       -0.0166
     26 S           5.4352    2.5212    1.6115 S.2     1  UNL1       -0.1039
     27 C           3.9455    1.8157    1.1247 C.ar    1  UNL1       -0.0160
     28 C           4.1151    0.5975    0.5040 C.ar    1  UNL1       -0.0026
     29 C           3.0471   -0.2227   -0.0023 C.ar    1  UNL1       -0.0014
     30 C           1.6571    0.0642   -0.2441 C.ar    1  UNL1       -0.0016
     31 C           1.1131    1.4077   -0.5623 C.ar    1  UNL1       -0.0129
     32 C           1.7540    2.5032   -1.0104 C.2     1  UNL1       -0.0719
     33 H           0.8670    3.9083   -2.3704 H       1  UNL1        0.0350
     34 H           0.9099    4.4530   -0.6664 H       1  UNL1        0.0350
     35 H          -1.4858    3.3799   -1.2917 H       1  UNL1        0.0581
     36 H          -3.0416    1.9025   -0.5287 H       1  UNL1        0.0631
     37 H          -7.5324    2.1927    0.8559 H       1  UNL1        0.0835
     38 H          -8.5615    0.2862   -0.7139 H       1  UNL1        0.0709
     39 H          -4.8666   -2.6582    0.8085 H       1  UNL1        0.0813
     40 H          -3.0768   -4.3571    1.1751 H       1  UNL1        0.1648
     41 H          -0.7670   -3.5656    0.7442 H       1  UNL1        0.0813
     42 H           0.5894   -3.0985   -0.8926 H       1  UNL1        0.0624
     43 H           2.9528   -3.5443   -0.8301 H       1  UNL1        0.0624
     44 H           5.2085   -2.9460   -0.4216 H       1  UNL1        0.0624
     45 H           7.0084   -1.3919    0.2916 H       1  UNL1        0.0624
     46 H           7.3928    1.1020    1.2798 H       1  UNL1        0.0699
     47 H           3.0323    2.3529    1.3352 H       1  UNL1        0.0700
     48 H           2.8140    2.6074   -1.1823 H       1  UNL1        0.0581
@<TRIPOS>BOND
     1     1     2    1
     2     2     3    2
     3     3     4   ar
     4     4     5   ar
     5     5     6   ar
     6     6     7    1
     7     7     8   ar
     8     8     9   ar
     9     9    10   ar
    10    10    11   ar
    11     6    12   ar
    12    12    13   ar
    13    13    14   ar
    14    14    15   ar
    15    15    16   ar
    16    16    17   ar
    17    17    18   ar
    18    18    19   ar
    19    19    20   ar
    20    20    21   ar
    21    21    22   ar
    22    22    23   ar
    23    23    24   ar
    24    24    25   ar
    25    25    26   ar
    26    26    27   ar
    27    27    28   ar
    28    28    29   ar
    29    29    30   ar
    30    30    31   ar
    31    31    32    2
    32    32     1    1
    33    31     3   ar
    34    17     4   ar
    35    30    18   ar
    36    11     7   ar
    37    16    12   ar
    38    29    21   ar
    39    28    24   ar
    40     1    33    1
    41     1    34    1
    42     2    35    1
    43     5    36    1
    44     9    37    1
    45    10    38    1
    46    13    39    1
    47    14    40    1
    48    15    41    1
    49    19    42    1
    50    20    43    1
    51    22    44    1
    52    23    45    1
    53    25    46    1
    54    27    47    1
    55    32    48    1
