@<TRIPOS>MOLECULE
*****
 46 53 0 0 0
SMALL
GASTEIGER

@<TRIPOS>ATOM
      1 SI          2.5761   -3.8291   -0.6102 Si      1  UNL1        0.0000
      2 C           3.2103   -2.0868   -0.7639 C.2     1  UNL1        0.0000
      3 C           2.2211   -1.1797   -0.6157 C.ar    1  UNL1        0.0000
      4 C           2.3995    0.2734   -0.6789 C.ar    1  UNL1        0.0000
      5 C           1.3103    1.0588   -0.5224 C.ar    1  UNL1        0.0000
      6 C          -0.0504    0.5200   -0.2890 C.ar    1  UNL1        0.0000
      7 C          -1.1152    1.4206   -0.1408 C.ar    1  UNL1        0.0000
      8 C          -2.4295    0.9499    0.0866 C.ar    1  UNL1        0.0000
      9 C          -3.6049    1.7370    0.2559 C.ar    1  UNL1        0.0000
     10 C          -3.6253    3.1166    0.2201 C.ar    1  UNL1        0.0000
     11 S          -5.2118    3.7631    0.4604 S.2     1  UNL1        0.0000
     12 C          -5.9082    2.1972    0.6183 C.ar    1  UNL1        0.0000
     13 C          -4.9217    1.2653    0.4839 C.ar    1  UNL1        0.0000
     14 C          -5.1047   -0.1448    0.5537 C.ar    1  UNL1        0.0000
     15 C          -6.2699   -0.8816    0.7646 C.ar    1  UNL1        0.0000
     16 C          -5.8617   -2.1987    0.7356 C.ar    1  UNL1        0.0000
     17 N          -4.5007   -2.2339    0.5148 N.ar    1  UNL1        0.0000
     18 C          -3.9916   -0.9530    0.3953 C.ar    1  UNL1        0.0000
     19 C          -2.6688   -0.4548    0.1654 C.ar    1  UNL1        0.0000
     20 C          -1.5897   -1.3486    0.0147 C.ar    1  UNL1        0.0000
     21 C          -0.2867   -0.8746   -0.2112 C.ar    1  UNL1        0.0000
     22 C           0.8810   -1.7712   -0.3783 C.ar    1  UNL1        0.0000
     23 C           0.8651   -3.1208   -0.3415 C.2     1  UNL1        0.0000
     24 C           3.6442    0.9336   -0.8814 C.ar    1  UNL1        0.0000
     25 S           4.1486    1.5895   -2.3977 S.2     1  UNL1        0.0000
     26 C           5.6605    2.1301   -1.7710 C.ar    1  UNL1        0.0000
     27 C           5.7151    1.7909   -0.4639 C.ar    1  UNL1        0.0000
     28 C           6.6922    1.9695    0.5445 C.ar    1  UNL1        0.0000
     29 C           6.2911    1.4369    1.7754 C.ar    1  UNL1        0.0000
     30 S           4.7044    0.6776    1.8190 S.2     1  UNL1        0.0000
     31 C           4.6129    1.1225    0.0694 C.ar    1  UNL1        0.0000
     32 H           3.0875   -4.5267    0.5939 H       1  UNL1        0.0000
     33 H           2.6713   -4.5912   -1.8785 H       1  UNL1        0.0000
     34 H           4.2552   -1.8912   -0.9464 H       1  UNL1        0.0000
     35 H           1.4010    2.1416   -0.5562 H       1  UNL1        0.0000
     36 H          -0.9259    2.4883   -0.2012 H       1  UNL1        0.0000
     37 H          -2.8101    3.8088    0.0677 H       1  UNL1        0.0000
     38 H          -6.9669    2.0722    0.7944 H       1  UNL1        0.0000
     39 H          -7.2807   -0.5302    0.9194 H       1  UNL1        0.0000
     40 H          -6.4185   -3.1189    0.8526 H       1  UNL1        0.0000
     41 H          -3.9510   -3.0785    0.4495 H       1  UNL1        0.0000
     42 H          -1.7645   -2.4169    0.0735 H       1  UNL1        0.0000
     43 H           0.0273   -3.7789   -0.1868 H       1  UNL1        0.0000
     44 H           6.3806    2.6428   -2.3926 H       1  UNL1        0.0000
     45 H           7.6486    2.4587    0.4071 H       1  UNL1        0.0000
     46 H           6.8548    1.4452    2.6984 H       1  UNL1        0.0000
@<TRIPOS>BOND
     1     1     2    1
     2     2     3    2
     3     3     4   ar
     4     4     5   ar
     5     5     6   ar
     6     6     7   ar
     7     7     8   ar
     8     8     9   ar
     9     9    10   ar
    10    10    11   ar
    11    11    12   ar
    12    12    13   ar
    13    13    14   ar
    14    14    15   ar
    15    15    16   ar
    16    16    17   ar
    17    17    18   ar
    18    18    19   ar
    19    19    20   ar
    20    20    21   ar
    21    21    22   ar
    22    22    23    2
    23     4    24    1
    24    24    25   ar
    25    25    26   ar
    26    26    27   ar
    27    27    28   ar
    28    28    29   ar
    29    29    30   ar
    30    30    31   ar
    31    23     1    1
    32    31    24   ar
    33    22     3   ar
    34    31    27   ar
    35    21     6   ar
    36    19     8   ar
    37    13     9   ar
    38    18    14   ar
    39     1    32    1
    40     1    33    1
    41     2    34    1
    42     5    35    1
    43     7    36    1
    44    10    37    1
    45    12    38    1
    46    15    39    1
    47    16    40    1
    48    17    41    1
    49    20    42    1
    50    23    43    1
    51    26    44    1
    52    28    45    1
    53    29    46    1
