@<TRIPOS>MOLECULE
*****
 47 54 0 0 0
SMALL
GASTEIGER

@<TRIPOS>ATOM
      1 C           2.3130   -3.9504   -0.5602 C.3     1  UNL1       -0.0148
      2 C           1.0054   -3.2248   -0.4787 C.2     1  UNL1       -0.0719
      3 C           1.2201   -1.9138   -0.2669 C.ar    1  UNL1       -0.0133
      4 C           0.2440   -0.8225   -0.0557 C.ar    1  UNL1       -0.0086
      5 C          -1.1697   -1.1180   -0.0682 C.ar    1  UNL1       -0.0446
      6 C          -2.1818   -0.1870    0.2463 C.ar    1  UNL1       -0.0009
      7 C          -3.6011   -0.4738    0.2277 C.ar    1  UNL1        0.0292
      8 S          -4.2526   -1.8226    1.1221 S.2     1  UNL1       -0.0939
      9 C          -5.8899   -1.5115    0.6310 C.ar    1  UNL1        0.0002
     10 C          -5.8796   -0.4310   -0.1743 C.ar    1  UNL1        0.0542
     11 N          -6.9532    0.1476   -0.7852 N.ar    1  UNL1       -0.3602
     12 C          -6.3408    1.1927   -1.4753 C.ar    1  UNL1        0.0028
     13 C          -4.9452    1.2085   -1.2627 C.ar    1  UNL1       -0.0356
     14 C          -4.6415    0.1291   -0.3918 C.ar    1  UNL1        0.0144
     15 C          -1.6341    1.0405    0.6243 C.ar    1  UNL1        0.0082
     16 C          -2.3239    2.1248    1.1130 C.ar    1  UNL1        0.0100
     17 N          -1.3982    3.0799    1.4473 N.ar    1  UNL1       -0.3659
     18 C          -0.1260    2.6129    1.1959 C.ar    1  UNL1        0.0100
     19 C          -0.2274    1.3617    0.6278 C.ar    1  UNL1        0.0083
     20 C           0.8042    0.4839    0.2224 C.ar    1  UNL1       -0.0003
     21 C           2.2652    0.7698    0.1084 C.ar    1  UNL1       -0.0054
     22 C           2.7936    2.0730    0.0476 C.ar    1  UNL1       -0.0526
     23 C           4.1720    2.3403   -0.0224 C.ar    1  UNL1       -0.0504
     24 C           5.0681    1.2657   -0.0694 C.ar    1  UNL1        0.0208
     25 C           6.4805    1.1383   -0.1436 C.ar    1  UNL1       -0.0161
     26 C           6.7429   -0.2085   -0.2046 C.ar    1  UNL1        0.0932
     27 O           5.5883   -0.9191   -0.1777 O.2     1  UNL1       -0.4623
     28 C           4.5541   -0.0274   -0.0864 C.ar    1  UNL1        0.1430
     29 C           3.1812   -0.3142   -0.0305 C.ar    1  UNL1        0.0330
     30 C           2.6594   -1.6743   -0.1982 C.ar    1  UNL1       -0.0100
     31 C           3.3010   -2.8442   -0.3627 C.2     1  UNL1       -0.0718
     32 H           2.4407   -4.4256   -1.5371 H       1  UNL1        0.0350
     33 H           2.3979   -4.7019    0.2302 H       1  UNL1        0.0350
     34 H           0.0534   -3.7248   -0.5575 H       1  UNL1        0.0581
     35 H          -1.4892   -2.1254   -0.3299 H       1  UNL1        0.0630
     36 H          -6.7188   -2.1245    0.9544 H       1  UNL1        0.0714
     37 H          -7.9252   -0.1317   -0.7364 H       1  UNL1        0.1653
     38 H          -6.9526    1.8522   -2.0774 H       1  UNL1        0.0807
     39 H          -4.2514    1.9180   -1.6943 H       1  UNL1        0.0639
     40 H          -3.3775    2.2978    1.2877 H       1  UNL1        0.0813
     41 H          -1.6147    3.9745    1.8675 H       1  UNL1        0.1648
     42 H           0.7125    3.2252    1.4902 H       1  UNL1        0.0813
     43 H           2.1377    2.9360    0.0087 H       1  UNL1        0.0624
     44 H           4.5283    3.3657   -0.0559 H       1  UNL1        0.0625
     45 H           7.2133    1.9319   -0.1594 H       1  UNL1        0.0655
     46 H           7.6492   -0.7935   -0.2731 H       1  UNL1        0.1030
     47 H           4.3682   -2.9996   -0.3779 H       1  UNL1        0.0581
@<TRIPOS>BOND
     1     1     2    1
     2     2     3    2
     3     3     4   ar
     4     4     5   ar
     5     5     6   ar
     6     6     7    1
     7     7     8   ar
     8     8     9   ar
     9     9    10   ar
    10    10    11   ar
    11    11    12   ar
    12    12    13   ar
    13    13    14   ar
    14     6    15   ar
    15    15    16   ar
    16    16    17   ar
    17    17    18   ar
    18    18    19   ar
    19    19    20   ar
    20    20    21   ar
    21    21    22   ar
    22    22    23   ar
    23    23    24   ar
    24    24    25   ar
    25    25    26   ar
    26    26    27   ar
    27    27    28   ar
    28    28    29   ar
    29    29    30   ar
    30    30    31    2
    31    31     1    1
    32    30     3   ar
    33    20     4   ar
    34    29    21   ar
    35    14     7   ar
    36    19    15   ar
    37    28    24   ar
    38    14    10   ar
    39     1    32    1
    40     1    33    1
    41     2    34    1
    42     5    35    1
    43     9    36    1
    44    11    37    1
    45    12    38    1
    46    13    39    1
    47    16    40    1
    48    17    41    1
    49    18    42    1
    50    22    43    1
    51    23    44    1
    52    25    45    1
    53    26    46    1
    54    31    47    1
