@<TRIPOS>MOLECULE
*****
 47 54 0 0 0
SMALL
GASTEIGER

@<TRIPOS>ATOM
      1 C           1.9167   -4.0836    0.8138 C.3     1  UNL1        0.0000
      2 C           0.6694   -3.2855    0.6272 C.2     1  UNL1        0.0000
      3 C           0.9751   -1.9935    0.4093 C.ar    1  UNL1        0.0000
      4 C           0.0543   -0.8648    0.2751 C.ar    1  UNL1        0.0000
      5 C          -1.4122   -1.0664    0.2314 C.ar    1  UNL1        0.0000
      6 C          -2.3319   -0.0781    0.2429 C.ar    1  UNL1        0.0000
      7 C          -3.7085   -0.4396    0.1191 C.ar    1  UNL1        0.0000
      8 S          -4.5288   -1.4132    1.3308 S.2     1  UNL1        0.0000
      9 C          -6.0545   -1.3709    0.5087 C.ar    1  UNL1        0.0000
     10 C          -5.8934   -0.6405   -0.6078 C.ar    1  UNL1        0.0000
     11 O          -6.8485   -0.3558   -1.5339 O.2     1  UNL1        0.0000
     12 C          -6.0982    0.4054   -2.4128 C.ar    1  UNL1        0.0000
     13 C          -4.7599    0.5697   -2.0325 C.ar    1  UNL1        0.0000
     14 C          -4.6361   -0.1354   -0.8219 C.ar    1  UNL1        0.0000
     15 C          -1.8248    1.2824    0.3728 C.ar    1  UNL1        0.0000
     16 C          -2.5903    2.3752    0.5770 C.2     1  UNL1        0.0000
     17 SI         -1.5544    3.8828    0.8938 Si      1  UNL1        0.0000
     18 C          -0.0442    2.7980    0.7226 C.2     1  UNL1        0.0000
     19 C          -0.3577    1.5242    0.3958 C.ar    1  UNL1        0.0000
     20 C           0.5896    0.3952    0.1905 C.ar    1  UNL1        0.0000
     21 C           2.0819    0.5557   -0.0683 C.ar    1  UNL1        0.0000
     22 C           2.5670    1.7372   -0.6346 C.ar    1  UNL1        0.0000
     23 C           3.9301    1.9557   -0.8323 C.ar    1  UNL1        0.0000
     24 C           4.8724    0.9661   -0.4910 C.ar    1  UNL1        0.0000
     25 C           6.3045    1.0162   -0.5942 C.ar    1  UNL1        0.0000
     26 C           6.9066   -0.1500   -0.2024 C.ar    1  UNL1        0.0000
     27 S           5.7668   -1.3108    0.2743 S.2     1  UNL1        0.0000
     28 C           4.4057   -0.2715   -0.0145 C.ar    1  UNL1        0.0000
     29 C           3.0070   -0.5065    0.1526 C.ar    1  UNL1        0.0000
     30 C           2.4303   -1.8340    0.4347 C.ar    1  UNL1        0.0000
     31 C           2.9786   -3.0397    0.6712 C.2     1  UNL1        0.0000
     32 H           2.0130   -4.8548    0.0441 H       1  UNL1        0.0000
     33 H           1.9476   -4.5453    1.8050 H       1  UNL1        0.0000
     34 H          -0.3159   -3.7164    0.7070 H       1  UNL1        0.0000
     35 H          -1.7437   -2.0958    0.1266 H       1  UNL1        0.0000
     36 H          -6.9464   -1.8586    0.8731 H       1  UNL1        0.0000
     37 H          -6.6568    0.7625   -3.2683 H       1  UNL1        0.0000
     38 H          -4.0047    1.1228   -2.5723 H       1  UNL1        0.0000
     39 H          -3.6662    2.4180    0.6416 H       1  UNL1        0.0000
     40 H          -1.6500    4.8808   -0.1987 H       1  UNL1        0.0000
     41 H          -1.7162    4.4164    2.2671 H       1  UNL1        0.0000
     42 H           0.9290    3.2199    0.9091 H       1  UNL1        0.0000
     43 H           1.8908    2.5199   -0.9659 H       1  UNL1        0.0000
     44 H           4.2637    2.9008   -1.2548 H       1  UNL1        0.0000
     45 H           6.8583    1.8780   -0.9459 H       1  UNL1        0.0000
     46 H           7.9639   -0.3756   -0.1815 H       1  UNL1        0.0000
     47 H           4.0206   -3.2967    0.7390 H       1  UNL1        0.0000
@<TRIPOS>BOND
     1     1     2    1
     2     2     3    2
     3     3     4   ar
     4     4     5   ar
     5     5     6   ar
     6     6     7    1
     7     7     8   ar
     8     8     9   ar
     9     9    10   ar
    10    10    11   ar
    11    11    12   ar
    12    12    13   ar
    13    13    14   ar
    14     6    15   ar
    15    15    16    2
    16    16    17    1
    17    17    18    1
    18    18    19    2
    19    19    20   ar
    20    20    21   ar
    21    21    22   ar
    22    22    23   ar
    23    23    24   ar
    24    24    25   ar
    25    25    26   ar
    26    26    27   ar
    27    27    28   ar
    28    28    29   ar
    29    29    30   ar
    30    30    31    2
    31    31     1    1
    32    30     3   ar
    33    20     4   ar
    34    29    21   ar
    35    14     7   ar
    36    19    15   ar
    37    28    24   ar
    38    14    10   ar
    39     1    32    1
    40     1    33    1
    41     2    34    1
    42     5    35    1
    43     9    36    1
    44    12    37    1
    45    13    38    1
    46    16    39    1
    47    17    40    1
    48    17    41    1
    49    18    42    1
    50    22    43    1
    51    23    44    1
    52    25    45    1
    53    26    46    1
    54    31    47    1
