@<TRIPOS>MOLECULE
*****
 48 55 0 0 0
SMALL
GASTEIGER

@<TRIPOS>ATOM
      1 C          -0.5590   -3.8730   -1.8515 C.3     1  UNL1       -0.0148
      2 C           0.4855   -2.8240   -1.6184 C.2     1  UNL1       -0.0719
      3 C          -0.0695   -1.7448   -1.0386 C.ar    1  UNL1       -0.0135
      4 C           0.5626   -0.4948   -0.5701 C.ar    1  UNL1       -0.0086
      5 C           1.9917   -0.3209   -0.7036 C.ar    1  UNL1       -0.0445
      6 C           2.7097    0.7767   -0.1866 C.ar    1  UNL1        0.0007
      7 C           4.1421    0.9309   -0.2962 C.ar    1  UNL1        0.0309
      8 S           4.8414    2.2880   -1.1408 S.2     1  UNL1       -0.0923
      9 C           6.4730    1.7576   -0.8803 C.ar    1  UNL1        0.0192
     10 C           6.4185    0.6005   -0.1971 C.ar    1  UNL1        0.1424
     11 O           7.4763   -0.1548    0.2037 O.2     1  UNL1       -0.4624
     12 C           6.7994   -1.1843    0.8338 C.ar    1  UNL1        0.0932
     13 C           5.4043   -1.0538    0.8113 C.ar    1  UNL1       -0.0150
     14 C           5.1626    0.1453    0.1180 C.ar    1  UNL1        0.0349
     15 C           1.8694    1.6307    0.5236 C.ar    1  UNL1        0.0287
     16 C           2.2327    2.7244    1.2669 C.ar    1  UNL1        0.1000
     17 O           1.1355    3.2433    1.8838 O.2     1  UNL1       -0.4698
     18 C           0.0645    2.4723    1.5323 C.ar    1  UNL1        0.1000
     19 C           0.4437    1.4821    0.6569 C.ar    1  UNL1        0.0287
     20 C          -0.3246    0.4547    0.0694 C.ar    1  UNL1        0.0012
     21 C          -1.8052    0.2792    0.0995 C.ar    1  UNL1       -0.0083
     22 C          -2.7005    1.3129    0.4344 C.ar    1  UNL1       -0.0457
     23 C          -4.0953    1.1245    0.5037 C.ar    1  UNL1       -0.0173
     24 C          -4.9609    2.1682    0.8738 C.ar    1  UNL1       -0.0540
     25 C          -6.3400    1.9641    0.9448 C.ar    1  UNL1       -0.0612
     26 C          -6.8727    0.7153    0.6429 C.ar    1  UNL1       -0.0612
     27 C          -6.0270   -0.3282    0.2654 C.ar    1  UNL1       -0.0540
     28 C          -4.6370   -0.1351    0.1907 C.ar    1  UNL1       -0.0173
     29 C          -3.7748   -1.1601   -0.2172 C.ar    1  UNL1       -0.0457
     30 C          -2.3847   -0.9586   -0.2917 C.ar    1  UNL1       -0.0093
     31 C          -1.4949   -1.9888   -0.8527 C.ar    1  UNL1       -0.0135
     32 C          -1.7930   -3.2165   -1.3135 C.2     1  UNL1       -0.0719
     33 H          -0.6626   -4.0970   -2.9171 H       1  UNL1        0.0350
     34 H          -0.3277   -4.7899   -1.3017 H       1  UNL1        0.0350
     35 H           1.5232   -2.9657   -1.8751 H       1  UNL1        0.0581
     36 H           2.5651   -1.0848   -1.2275 H       1  UNL1        0.0630
     37 H           7.3420    2.2951   -1.2302 H       1  UNL1        0.0731
     38 H           7.4491   -1.9409    1.2545 H       1  UNL1        0.1030
     39 H           4.6927   -1.7404    1.2470 H       1  UNL1        0.0655
     40 H           3.1657    3.2258    1.4836 H       1  UNL1        0.1036
     41 H          -0.8540    2.7608    2.0203 H       1  UNL1        0.1036
     42 H          -2.3335    2.3169    0.6128 H       1  UNL1        0.0630
     43 H          -4.5648    3.1523    1.1150 H       1  UNL1        0.0624
     44 H          -6.9958    2.7805    1.2357 H       1  UNL1        0.0618
     45 H          -7.9461    0.5531    0.6962 H       1  UNL1        0.0618
     46 H          -6.4619   -1.2957    0.0245 H       1  UNL1        0.0624
     47 H          -4.2005   -2.1182   -0.5023 H       1  UNL1        0.0630
     48 H          -2.7643   -3.6846   -1.3325 H       1  UNL1        0.0581
@<TRIPOS>BOND
     1     1     2    1
     2     2     3    2
     3     3     4   ar
     4     4     5   ar
     5     5     6   ar
     6     6     7    1
     7     7     8   ar
     8     8     9   ar
     9     9    10   ar
    10    10    11   ar
    11    11    12   ar
    12    12    13   ar
    13    13    14   ar
    14     6    15   ar
    15    15    16   ar
    16    16    17   ar
    17    17    18   ar
    18    18    19   ar
    19    19    20   ar
    20    20    21   ar
    21    21    22   ar
    22    22    23   ar
    23    23    24   ar
    24    24    25   ar
    25    25    26   ar
    26    26    27   ar
    27    27    28   ar
    28    28    29   ar
    29    29    30   ar
    30    30    31   ar
    31    31    32    2
    32    32     1    1
    33    31     3   ar
    34    20     4   ar
    35    30    21   ar
    36    14     7   ar
    37    19    15   ar
    38    28    23   ar
    39    14    10   ar
    40     1    33    1
    41     1    34    1
    42     2    35    1
    43     5    36    1
    44     9    37    1
    45    12    38    1
    46    13    39    1
    47    16    40    1
    48    18    41    1
    49    22    42    1
    50    24    43    1
    51    25    44    1
    52    26    45    1
    53    27    46    1
    54    29    47    1
    55    32    48    1
