@<TRIPOS>MOLECULE
*****
 48 55 0 0 0
SMALL
GASTEIGER

@<TRIPOS>ATOM
      1 C          -1.0199    4.1885    0.4454 C.3     1  UNL1        0.0000
      2 C           0.2017    3.3462    0.3053 C.2     1  UNL1        0.0000
      3 C          -0.1501    2.0662    0.0927 C.ar    1  UNL1        0.0000
      4 C           0.7292    0.9062   -0.0950 C.ar    1  UNL1        0.0000
      5 C           2.1243    1.0546   -0.2312 C.ar    1  UNL1        0.0000
      6 C           2.9441   -0.0357   -0.5338 C.ar    1  UNL1        0.0000
      7 C           2.3425   -1.2765   -0.7294 C.ar    1  UNL1        0.0000
      8 C           0.9567   -1.4280   -0.5893 C.ar    1  UNL1        0.0000
      9 C           0.1169   -0.3652   -0.2077 C.ar    1  UNL1        0.0000
     10 C          -1.3590   -0.5121   -0.0375 C.ar    1  UNL1        0.0000
     11 C          -2.0536   -1.7347    0.1554 C.ar    1  UNL1        0.0000
     12 C          -1.5581   -2.9750    0.4950 C.ar    1  UNL1        0.0000
     13 N          -2.6152   -3.8575    0.5727 N.ar    1  UNL1        0.0000
     14 C          -3.7974   -3.1967    0.3463 C.ar    1  UNL1        0.0000
     15 C          -3.4797   -1.8799    0.1259 C.ar    1  UNL1        0.0000
     16 C          -4.3645   -0.8368   -0.0855 C.ar    1  UNL1        0.0000
     17 C          -5.8182   -0.9173   -0.1899 C.2     1  UNL1        0.0000
     18 C          -6.3877    0.2823   -0.3893 C.2     1  UNL1        0.0000
     19 SI         -5.1345    1.6731   -0.4530 Si      1  UNL1        0.0000
     20 C          -3.7126    0.4390   -0.1672 C.ar    1  UNL1        0.0000
     21 C          -2.2805    0.6236   -0.0748 C.ar    1  UNL1        0.0000
     22 C          -1.6116    1.9504    0.0611 C.ar    1  UNL1        0.0000
     23 C          -2.1148    3.1783    0.2910 C.2     1  UNL1        0.0000
     24 C           4.3920    0.1106   -0.6685 C.ar    1  UNL1        0.0000
     25 S           5.0730    1.2890   -1.7360 S.2     1  UNL1        0.0000
     26 C           6.6958    0.8362   -1.3730 C.ar    1  UNL1        0.0000
     27 C           6.7126   -0.1835   -0.4660 C.ar    1  UNL1        0.0000
     28 S           8.0850   -1.0692    0.2915 S.2     1  UNL1        0.0000
     29 C           6.8349   -1.9705    1.1398 C.ar    1  UNL1        0.0000
     30 C           5.5116   -1.6139    0.8543 C.ar    1  UNL1        0.0000
     31 C           5.4227   -0.5633   -0.0979 C.ar    1  UNL1        0.0000
     32 H          -1.0714    4.9513   -0.3367 H       1  UNL1        0.0000
     33 H          -1.0601    4.6652    1.4292 H       1  UNL1        0.0000
     34 H           1.2013    3.7437    0.3801 H       1  UNL1        0.0000
     35 H           2.5790    2.0346   -0.1153 H       1  UNL1        0.0000
     36 H           2.9386   -2.1384   -1.0220 H       1  UNL1        0.0000
     37 H           0.5479   -2.4019   -0.8366 H       1  UNL1        0.0000
     38 H          -0.5652   -3.3333    0.7229 H       1  UNL1        0.0000
     39 H          -2.5338   -4.8396    0.8019 H       1  UNL1        0.0000
     40 H          -4.7411   -3.7220    0.3950 H       1  UNL1        0.0000
     41 H          -6.3564   -1.8515   -0.1191 H       1  UNL1        0.0000
     42 H          -7.4426    0.4783   -0.5016 H       1  UNL1        0.0000
     43 H          -5.3317    2.6137    0.6798 H       1  UNL1        0.0000
     44 H          -5.0874    2.3114   -1.7924 H       1  UNL1        0.0000
     45 H          -3.1402    3.4725    0.4122 H       1  UNL1        0.0000
     46 H           7.5484    1.3222   -1.8264 H       1  UNL1        0.0000
     47 H           7.1639   -2.7371    1.8281 H       1  UNL1        0.0000
     48 H           4.6651   -2.0975    1.3266 H       1  UNL1        0.0000
@<TRIPOS>BOND
     1     1     2    1
     2     2     3    2
     3     3     4   ar
     4     4     5   ar
     5     5     6   ar
     6     6     7   ar
     7     7     8   ar
     8     8     9   ar
     9     9    10   ar
    10    10    11   ar
    11    11    12   ar
    12    12    13   ar
    13    13    14   ar
    14    14    15   ar
    15    15    16   ar
    16    16    17    1
    17    17    18    2
    18    18    19    1
    19    19    20    1
    20    20    21   ar
    21    21    22   ar
    22    22    23    2
    23     6    24    1
    24    24    25   ar
    25    25    26   ar
    26    26    27   ar
    27    27    28   ar
    28    28    29   ar
    29    29    30   ar
    30    30    31   ar
    31    23     1    1
    32    31    24   ar
    33    22     3   ar
    34    31    27   ar
    35     9     4   ar
    36    21    10   ar
    37    15    11   ar
    38    20    16   ar
    39     1    32    1
    40     1    33    1
    41     2    34    1
    42     5    35    1
    43     7    36    1
    44     8    37    1
    45    12    38    1
    46    13    39    1
    47    14    40    1
    48    17    41    1
    49    18    42    1
    50    19    43    1
    51    19    44    1
    52    23    45    1
    53    26    46    1
    54    29    47    1
    55    30    48    1
