@<TRIPOS>MOLECULE
*****
 47 53 0 0 0
SMALL
GASTEIGER

@<TRIPOS>ATOM
      1 C           0.8833   -3.8512   -0.6228 C.3     1  UNL1        0.0000
      2 C          -0.3748   -3.0604   -0.4733 C.2     1  UNL1        0.0000
      3 C          -0.0751   -1.7791   -0.1984 C.ar    1  UNL1        0.0000
      4 C          -0.9871   -0.6357   -0.0783 C.ar    1  UNL1        0.0000
      5 C          -2.3807   -0.8079    0.0156 C.ar    1  UNL1        0.0000
      6 C          -3.2317    0.2849    0.1966 C.ar    1  UNL1        0.0000
      7 C          -2.6677    1.5517    0.3282 C.ar    1  UNL1        0.0000
      8 C          -1.2805    1.7272    0.2370 C.ar    1  UNL1        0.0000
      9 C          -0.4054    0.6557   -0.0199 C.ar    1  UNL1        0.0000
     10 C           1.0723    0.8158   -0.1038 C.ar    1  UNL1        0.0000
     11 C           1.7817    2.0003   -0.3520 C.ar    1  UNL1        0.0000
     12 C           1.3187    3.2084   -0.8171 C.ar    1  UNL1        0.0000
     13 O           2.3445    4.1013   -0.9343 O.2     1  UNL1        0.0000
     14 C           3.4875    3.4521   -0.5766 C.ar    1  UNL1        0.0000
     15 C           3.1978    2.1525   -0.2460 C.ar    1  UNL1        0.0000
     16 C           4.1063    1.1516    0.1486 C.ar    1  UNL1        0.0000
     17 C           5.4981    1.3432    0.3339 C.ar    1  UNL1        0.0000
     18 C           6.2866    0.2870    0.7673 C.ar    1  UNL1        0.0000
     19 C           5.6940   -0.9402    1.0310 C.ar    1  UNL1        0.0000
     20 C           4.3162   -1.1244    0.8323 C.ar    1  UNL1        0.0000
     21 C           3.4572   -0.1089    0.3447 C.ar    1  UNL1        0.0000
     22 C           2.0084   -0.2797    0.0902 C.ar    1  UNL1        0.0000
     23 C           1.3767   -1.6206   -0.1033 C.ar    1  UNL1        0.0000
     24 C           1.9358   -2.8071   -0.4103 C.2     1  UNL1        0.0000
     25 C          -4.6717    0.0846    0.3004 C.2     1  UNL1        0.0000
     26 C          -5.3206   -0.6319    1.2422 C.2     1  UNL1        0.0000
     27 C          -6.7681   -0.6758    1.1021 C.2     1  UNL1        0.0000
     28 C          -7.2641   -0.0006    0.0492 C.2     1  UNL1        0.0000
     29 SI         -5.8916    0.8169   -0.9475 Si      1  UNL1        0.0000
     30 H           0.9573   -4.2839   -1.6248 H       1  UNL1        0.0000
     31 H           0.9510   -4.6437    0.1279 H       1  UNL1        0.0000
     32 H          -1.3570   -3.4783   -0.6281 H       1  UNL1        0.0000
     33 H          -2.8123   -1.8040   -0.0391 H       1  UNL1        0.0000
     34 H          -3.2930    2.4177    0.5358 H       1  UNL1        0.0000
     35 H          -0.9053    2.7277    0.4256 H       1  UNL1        0.0000
     36 H           0.3588    3.5956   -1.1254 H       1  UNL1        0.0000
     37 H           4.3899    4.0437   -0.6324 H       1  UNL1        0.0000
     38 H           5.9588    2.3103    0.1561 H       1  UNL1        0.0000
     39 H           7.3530    0.4254    0.9220 H       1  UNL1        0.0000
     40 H           6.2968   -1.7633    1.4078 H       1  UNL1        0.0000
     41 H           3.9110   -2.0885    1.1275 H       1  UNL1        0.0000
     42 H           2.9818   -3.0198   -0.5589 H       1  UNL1        0.0000
     43 H          -4.8303   -1.1455    2.0607 H       1  UNL1        0.0000
     44 H          -7.3787   -1.2211    1.8113 H       1  UNL1        0.0000
     45 H          -8.3005    0.0938   -0.2337 H       1  UNL1        0.0000
     46 H          -5.9612    2.2988   -0.8774 H       1  UNL1        0.0000
     47 H          -5.7662    0.2249   -2.3028 H       1  UNL1        0.0000
@<TRIPOS>BOND
     1     1     2    1
     2     2     3    2
     3     3     4   ar
     4     4     5   ar
     5     5     6   ar
     6     6     7   ar
     7     7     8   ar
     8     8     9   ar
     9     9    10   ar
    10    10    11   ar
    11    11    12   ar
    12    12    13   ar
    13    13    14   ar
    14    14    15   ar
    15    15    16   ar
    16    16    17   ar
    17    17    18   ar
    18    18    19   ar
    19    19    20   ar
    20    20    21   ar
    21    21    22   ar
    22    22    23   ar
    23    23    24    2
    24     6    25    1
    25    25    26    2
    26    26    27    1
    27    27    28    2
    28    28    29    1
    29    24     1    1
    30    29    25    1
    31    23     3   ar
    32     9     4   ar
    33    22    10   ar
    34    15    11   ar
    35    21    16   ar
    36     1    30    1
    37     1    31    1
    38     2    32    1
    39     5    33    1
    40     7    34    1
    41     8    35    1
    42    12    36    1
    43    14    37    1
    44    17    38    1
    45    18    39    1
    46    19    40    1
    47    20    41    1
    48    24    42    1
    49    26    43    1
    50    27    44    1
    51    28    45    1
    52    29    46    1
    53    29    47    1
