@<TRIPOS>MOLECULE
*****
 50 57 0 0 0
SMALL
GASTEIGER

@<TRIPOS>ATOM
      1 C          -1.2688    3.4611   -2.1014 C.3     1  UNL1       -0.0148
      2 C          -0.0919    2.7272   -1.5486 C.2     1  UNL1       -0.0719
      3 C          -0.5023    1.6021   -0.9376 C.ar    1  UNL1       -0.0135
      4 C           0.3138    0.5379   -0.3371 C.ar    1  UNL1       -0.0093
      5 C           1.7203    0.5588   -0.4187 C.ar    1  UNL1       -0.0457
      6 C           2.4926   -0.5324   -0.0076 C.ar    1  UNL1       -0.0167
      7 C           1.8227   -1.6701    0.4411 C.ar    1  UNL1       -0.0534
      8 C           0.4250   -1.6913    0.5359 C.ar    1  UNL1       -0.0528
      9 C          -0.3663   -0.5695    0.2285 C.ar    1  UNL1       -0.0089
     10 C          -1.8553   -0.5518    0.3737 C.ar    1  UNL1       -0.0011
     11 C          -2.6241   -1.4159    1.2150 C.ar    1  UNL1       -0.0020
     12 C          -2.1411   -2.2151    2.2288 C.ar    1  UNL1       -0.0160
     13 S          -3.3720   -3.1322    3.0049 S.2     1  UNL1       -0.1038
     14 C          -4.6037   -2.3855    2.0792 C.ar    1  UNL1       -0.0160
     15 C          -4.0756   -1.4692    1.2036 C.ar    1  UNL1       -0.0029
     16 C          -4.8429   -0.6489    0.3972 C.ar    1  UNL1       -0.0130
     17 C          -6.2690   -0.5296    0.2240 C.2     1  UNL1       -0.0573
     18 C          -6.4535    0.4962   -0.6194 C.2     1  UNL1       -0.0791
     19 C          -5.1566    1.1449   -1.0550 C.3     1  UNL1       -0.0080
     20 C          -4.1210    0.3069   -0.3467 C.ar    1  UNL1       -0.0276
     21 C          -2.6938    0.3994   -0.3521 C.ar    1  UNL1       -0.0052
     22 C          -1.9603    1.5050   -1.0179 C.ar    1  UNL1       -0.0132
     23 C          -2.4082    2.5742   -1.7021 C.2     1  UNL1       -0.0719
     24 C           3.9455   -0.5036   -0.1097 C.ar    1  UNL1       -0.0097
     25 C           4.6477   -0.4778   -1.3441 C.ar    1  UNL1       -0.0534
     26 C           6.0757   -0.4583   -1.4626 C.ar    1  UNL1       -0.0606
     27 C           6.9566   -0.4591   -0.3613 C.ar    1  UNL1       -0.0535
     28 C           6.2691   -0.4770    0.8519 C.ar    1  UNL1       -0.0103
     29 C           6.9170   -0.4723    2.0624 C.ar    1  UNL1       -0.0166
     30 S           5.7986   -0.4808    3.3670 S.2     1  UNL1       -0.1039
     31 C           4.4451   -0.4879    2.3056 C.ar    1  UNL1       -0.0160
     32 C           4.8312   -0.4982    0.9845 C.ar    1  UNL1       -0.0032
     33 H          -1.2034    3.5532   -3.1894 H       1  UNL1        0.0350
     34 H          -1.3641    4.4537   -1.6518 H       1  UNL1        0.0350
     35 H           0.9239    3.0669   -1.6733 H       1  UNL1        0.0581
     36 H           2.2304    1.4269   -0.8289 H       1  UNL1        0.0630
     37 H           2.3836   -2.5652    0.7055 H       1  UNL1        0.0624
     38 H          -0.0266   -2.6373    0.8184 H       1  UNL1        0.0624
     39 H          -1.1355   -2.3257    2.6037 H       1  UNL1        0.0700
     40 H          -5.6391   -2.6402    2.2569 H       1  UNL1        0.0700
     41 H          -7.0213   -1.1481    0.6832 H       1  UNL1        0.0621
     42 H          -7.4207    0.8440   -0.9549 H       1  UNL1        0.0575
     43 H          -5.0478    1.0810   -2.1414 H       1  UNL1        0.0356
     44 H          -5.1405    2.1816   -0.7073 H       1  UNL1        0.0356
     45 H          -3.4237    2.8349   -1.9393 H       1  UNL1        0.0581
     46 H           4.0681   -0.4826   -2.2691 H       1  UNL1        0.0624
     47 H           6.5032   -0.4441   -2.4659 H       1  UNL1        0.0618
     48 H           8.0327   -0.4437   -0.4712 H       1  UNL1        0.0624
     49 H           7.9791   -0.4603    2.2641 H       1  UNL1        0.0699
     50 H           3.4474   -0.4822    2.7225 H       1  UNL1        0.0700
@<TRIPOS>BOND
     1     1     2    1
     2     2     3    2
     3     3     4   ar
     4     4     5   ar
     5     5     6   ar
     6     6     7   ar
     7     7     8   ar
     8     8     9   ar
     9     9    10   ar
    10    10    11   ar
    11    11    12   ar
    12    12    13   ar
    13    13    14   ar
    14    14    15   ar
    15    15    16   ar
    16    16    17    1
    17    17    18    2
    18    18    19    1
    19    19    20    1
    20    20    21   ar
    21    21    22   ar
    22    22    23    2
    23     6    24    1
    24    24    25   ar
    25    25    26   ar
    26    26    27   ar
    27    27    28   ar
    28    28    29   ar
    29    29    30   ar
    30    30    31   ar
    31    31    32   ar
    32    23     1    1
    33    32    24   ar
    34    22     3   ar
    35    32    28   ar
    36     9     4   ar
    37    21    10   ar
    38    15    11   ar
    39    20    16   ar
    40     1    33    1
    41     1    34    1
    42     2    35    1
    43     5    36    1
    44     7    37    1
    45     8    38    1
    46    12    39    1
    47    14    40    1
    48    17    41    1
    49    18    42    1
    50    19    43    1
    51    19    44    1
    52    23    45    1
    53    25    46    1
    54    26    47    1
    55    27    48    1
    56    29    49    1
    57    31    50    1
