@<TRIPOS>MOLECULE
*****
 46 53 0 0 0
SMALL
GASTEIGER

@<TRIPOS>ATOM
      1 C          -0.4172   -0.6899   -4.2381 C.3     1  UNL1       -0.0148
      2 C           0.6844   -0.5934   -3.2274 C.2     1  UNL1       -0.0719
      3 C           0.1637   -0.4195   -2.0000 C.ar    1  UNL1       -0.0135
      4 C           0.8407   -0.2701   -0.7039 C.ar    1  UNL1       -0.0093
      5 C           2.2459   -0.3074   -0.6043 C.ar    1  UNL1       -0.0456
      6 C           2.9057   -0.1625    0.6236 C.ar    1  UNL1       -0.0137
      7 C           2.1113    0.0198    1.7600 C.ar    1  UNL1       -0.0533
      8 C           0.7117    0.0569    1.6754 C.ar    1  UNL1       -0.0529
      9 C           0.0329   -0.0877    0.4507 C.ar    1  UNL1       -0.0095
     10 C          -1.4721   -0.0537    0.3499 C.ar    1  UNL1       -0.0089
     11 C          -2.2973    0.1217    1.4768 C.ar    1  UNL1       -0.0436
     12 C          -3.7083    0.1511    1.3730 C.ar    1  UNL1        0.0109
     13 C          -4.5684    0.3289    2.5109 C.ar    1  UNL1        0.1076
     14 N          -4.1897    0.4875    3.7930 N.ar    1  UNL1       -0.1902
     15 S          -5.5801    0.6495    4.6841 S.2     1  UNL1        0.1165
     16 N          -6.7301    0.5262    3.4939 N.ar    1  UNL1       -0.1908
     17 C          -6.0658    0.3524    2.3413 C.ar    1  UNL1        0.1005
     18 C          -6.6570    0.2010    1.0678 C.ar    1  UNL1       -0.0329
     19 C          -5.7689    0.0300   -0.0108 C.ar    1  UNL1       -0.0519
     20 C          -4.3516    0.0036    0.1188 C.ar    1  UNL1       -0.0151
     21 C          -3.5349   -0.1713   -1.0037 C.ar    1  UNL1       -0.0456
     22 C          -2.1274   -0.2013   -0.9055 C.ar    1  UNL1       -0.0093
     23 C          -1.2878   -0.3863   -2.0993 C.ar    1  UNL1       -0.0135
     24 C          -1.6423   -0.5422   -3.3871 C.2     1  UNL1       -0.0719
     25 C           4.3651   -0.2182    0.7257 C.ar    1  UNL1        0.0284
     26 C           5.0594   -1.0032    1.6616 C.ar    1  UNL1        0.0375
     27 N           6.4175   -1.1180    1.8419 N.ar    1  UNL1       -0.2604
     28 C           7.2818   -0.4172    1.0548 C.ar    1  UNL1        0.0557
     29 C           6.7419    0.4210    0.0610 C.ar    1  UNL1        0.1185
     30 N           7.4351    1.1829   -0.8007 N.ar    1  UNL1       -0.1892
     31 S           6.3136    1.9707   -1.7349 S.2     1  UNL1        0.1165
     32 N           4.9059    1.3737   -1.0968 N.ar    1  UNL1       -0.1901
     33 C           5.2451    0.5238   -0.1088 C.ar    1  UNL1        0.1105
     34 H          -0.3489    0.1154   -4.9751 H       1  UNL1        0.0350
     35 H          -0.4036   -1.6585   -4.7462 H       1  UNL1        0.0350
     36 H           1.7297   -0.6546   -3.4857 H       1  UNL1        0.0581
     37 H           2.8402   -0.4558   -1.5030 H       1  UNL1        0.0630
     38 H           2.5693    0.1518    2.7393 H       1  UNL1        0.0624
     39 H           0.1756    0.2076    2.6076 H       1  UNL1        0.0624
     40 H          -1.8742    0.2411    2.4698 H       1  UNL1        0.0631
     41 H          -7.7319    0.2164    0.9347 H       1  UNL1        0.0640
     42 H          -6.2093   -0.0886   -1.0029 H       1  UNL1        0.0624
     43 H          -4.0035   -0.2869   -1.9783 H       1  UNL1        0.0630
     44 H          -2.6426   -0.5610   -3.7888 H       1  UNL1        0.0581
     45 H           4.4942   -1.6305    2.3534 H       1  UNL1        0.0836
     46 H           8.3420   -0.5386    1.2324 H       1  UNL1        0.0852
@<TRIPOS>BOND
     1     1     2    1
     2     2     3    2
     3     3     4   ar
     4     4     5   ar
     5     5     6   ar
     6     6     7   ar
     7     7     8   ar
     8     8     9   ar
     9     9    10   ar
    10    10    11   ar
    11    11    12   ar
    12    12    13   ar
    13    13    14   ar
    14    14    15   ar
    15    15    16   ar
    16    16    17   ar
    17    17    18   ar
    18    18    19   ar
    19    19    20   ar
    20    20    21   ar
    21    21    22   ar
    22    22    23   ar
    23    23    24    2
    24     6    25    1
    25    25    26   ar
    26    26    27   ar
    27    27    28   ar
    28    28    29   ar
    29    29    30   ar
    30    30    31   ar
    31    31    32   ar
    32    32    33   ar
    33    24     1    1
    34    33    25   ar
    35    23     3   ar
    36    33    29   ar
    37     9     4   ar
    38    22    10   ar
    39    20    12   ar
    40    17    13   ar
    41     1    34    1
    42     1    35    1
    43     2    36    1
    44     5    37    1
    45     7    38    1
    46     8    39    1
    47    11    40    1
    48    18    41    1
    49    19    42    1
    50    21    43    1
    51    24    44    1
    52    26    45    1
    53    28    46    1
