@<TRIPOS>MOLECULE
*****
 43 48 0 0 0
SMALL
GASTEIGER

@<TRIPOS>ATOM
      1 C          -1.2296   -3.2038    1.7987 C.3     1  UNL1       -0.0148
      2 C           0.0242   -2.4780    1.4329 C.2     1  UNL1       -0.0719
      3 C          -0.2794   -1.3519    0.7637 C.ar    1  UNL1       -0.0135
      4 C           0.6232   -0.3330    0.2115 C.ar    1  UNL1       -0.0093
      5 C           2.0245   -0.4474    0.3416 C.ar    1  UNL1       -0.0460
      6 C           2.9000    0.5135   -0.1780 C.ar    1  UNL1       -0.0209
      7 C           2.3296    1.6024   -0.8378 C.ar    1  UNL1       -0.0537
      8 C           0.9381    1.7279   -0.9740 C.ar    1  UNL1       -0.0529
      9 C           0.0417    0.7723   -0.4583 C.ar    1  UNL1       -0.0095
     10 C          -1.4576    0.9014   -0.6013 C.ar    1  UNL1       -0.0093
     11 C          -2.0382    2.0124   -1.2742 C.ar    1  UNL1       -0.0529
     12 C          -3.4186    2.1666   -1.4263 C.ar    1  UNL1       -0.0537
     13 C          -4.2413    1.1981   -0.9000 C.ar    1  UNL1       -0.0212
     14 C          -5.6916    1.1379   -0.9306 C.2     1  UNL1       -0.0579
     15 C          -6.0592    0.0173   -0.2950 C.2     1  UNL1       -0.0791
     16 C          -4.8781   -0.7686    0.2159 C.3     1  UNL1       -0.0080
     17 C          -3.7213    0.0819   -0.2268 C.ar    1  UNL1       -0.0282
     18 C          -2.3412   -0.0922   -0.0630 C.ar    1  UNL1       -0.0059
     19 C          -1.7289   -1.2403    0.6331 C.ar    1  UNL1       -0.0132
     20 C          -2.2876   -2.3091    1.2299 C.2     1  UNL1       -0.0719
     21 C           4.3601    0.3908   -0.0400 C.2     1  UNL1       -0.0365
     22 C           5.0624   -0.5892    0.5596 C.2     1  UNL1       -0.0580
     23 C           6.4736   -0.3162    0.4665 C.2     1  UNL1       -0.0651
     24 C           6.6612    0.8347   -0.1910 C.2     1  UNL1       -0.0797
     25 C           5.3330    1.4116   -0.5863 C.3     1  UNL1       -0.0086
     26 H          -1.2618   -4.1957    1.3387 H       1  UNL1        0.0350
     27 H          -1.3318   -3.2962    2.8838 H       1  UNL1        0.0350
     28 H           1.0077   -2.8391    1.6876 H       1  UNL1        0.0581
     29 H           2.4326   -1.3079    0.8612 H       1  UNL1        0.0630
     30 H           2.9500    2.3860   -1.2658 H       1  UNL1        0.0624
     31 H           0.5889    2.6087   -1.5026 H       1  UNL1        0.0624
     32 H          -1.4232    2.7969   -1.7029 H       1  UNL1        0.0624
     33 H          -3.8239    3.0283   -1.9461 H       1  UNL1        0.0624
     34 H          -6.3318    1.8742   -1.3881 H       1  UNL1        0.0621
     35 H          -7.0826   -0.3009   -0.1561 H       1  UNL1        0.0575
     36 H          -4.8553   -1.7553   -0.2556 H       1  UNL1        0.0356
     37 H          -4.9260   -0.8465    1.3058 H       1  UNL1        0.0356
     38 H          -3.3329   -2.5456    1.3203 H       1  UNL1        0.0581
     39 H           4.6767   -1.4688    1.0509 H       1  UNL1        0.0620
     40 H           7.2438   -0.9549    0.8717 H       1  UNL1        0.0615
     41 H           7.6161    1.2878   -0.4093 H       1  UNL1        0.0575
     42 H           5.2630    1.4957   -1.6756 H       1  UNL1        0.0356
     43 H           5.1914    2.3940   -0.1242 H       1  UNL1        0.0356
@<TRIPOS>BOND
     1     1     2    1
     2     2     3    2
     3     3     4   ar
     4     4     5   ar
     5     5     6   ar
     6     6     7   ar
     7     7     8   ar
     8     8     9   ar
     9     9    10   ar
    10    10    11   ar
    11    11    12   ar
    12    12    13   ar
    13    13    14    1
    14    14    15    2
    15    15    16    1
    16    16    17    1
    17    17    18   ar
    18    18    19   ar
    19    19    20    2
    20     6    21    1
    21    21    22    2
    22    22    23    1
    23    23    24    2
    24    24    25    1
    25    20     1    1
    26    25    21    1
    27    19     3   ar
    28     9     4   ar
    29    18    10   ar
    30    17    13   ar
    31     1    26    1
    32     1    27    1
    33     2    28    1
    34     5    29    1
    35     7    30    1
    36     8    31    1
    37    11    32    1
    38    12    33    1
    39    14    34    1
    40    15    35    1
    41    16    36    1
    42    16    37    1
    43    20    38    1
    44    22    39    1
    45    23    40    1
    46    24    41    1
    47    25    42    1
    48    25    43    1
