@<TRIPOS>MOLECULE
*****
 43 49 0 0 0
SMALL
GASTEIGER

@<TRIPOS>ATOM
      1 C          -1.5026    0.9597    3.5610 C.3     1  UNL1       -0.0148
      2 C          -0.2554    0.8721    2.7409 C.2     1  UNL1       -0.0719
      3 C          -0.5539    0.4441    1.5017 C.ar    1  UNL1       -0.0134
      4 C           0.3436    0.2125    0.3645 C.ar    1  UNL1       -0.0092
      5 C           1.7330    0.4292    0.4641 C.ar    1  UNL1       -0.0442
      6 C           2.6089    0.2101   -0.6121 C.ar    1  UNL1        0.0031
      7 C           2.0305   -0.2196   -1.8099 C.ar    1  UNL1       -0.0519
      8 C           0.6484   -0.4407   -1.9237 C.ar    1  UNL1       -0.0528
      9 C          -0.2349   -0.2378   -0.8462 C.ar    1  UNL1       -0.0080
     10 C          -1.7159   -0.4761   -0.9550 C.ar    1  UNL1        0.0106
     11 C          -2.3095   -0.9268   -2.1310 C.ar    1  UNL1        0.0367
     12 N          -3.6271   -1.1625   -2.3040 N.ar    1  UNL1       -0.2528
     13 C          -4.4359   -0.9475   -1.2598 C.ar    1  UNL1        0.0898
     14 C          -5.7885   -1.1907   -1.4412 C.ar    1  UNL1       -0.0328
     15 C          -6.7014   -0.9958   -0.4133 C.ar    1  UNL1       -0.0415
     16 C          -6.2116   -0.5524    0.7915 C.ar    1  UNL1        0.0284
     17 N          -4.9043   -0.3037    1.0108 N.ar    1  UNL1       -0.2528
     18 C          -4.0042   -0.4935    0.0038 C.ar    1  UNL1        0.0974
     19 C          -2.6116   -0.2602    0.1355 C.ar    1  UNL1        0.0190
     20 C          -1.9924    0.2174    1.3981 C.ar    1  UNL1       -0.0113
     21 C          -2.5473    0.5142    2.5877 C.2     1  UNL1       -0.0719
     22 C           4.0493    0.4548   -0.4573 C.ar    1  UNL1        0.0990
     23 N           4.4458    1.4133    0.4544 N.ar    1  UNL1       -0.2527
     24 C           5.7643    1.7122    0.6686 C.ar    1  UNL1        0.0304
     25 C           6.8664    1.1341    0.0539 C.ar    1  UNL1       -0.0153
     26 C           6.5261    0.1362   -0.8763 C.ar    1  UNL1        0.1034
     27 N           7.4071   -0.5780   -1.5947 N.ar    1  UNL1       -0.1907
     28 S           6.5201   -1.6272   -2.5221 S.2     1  UNL1        0.1165
     29 N           4.9814   -1.2176   -2.0642 N.ar    1  UNL1       -0.1886
     30 C           5.0876   -0.2302   -1.1539 C.ar    1  UNL1        0.1257
     31 H          -1.4560    0.2911    4.4254 H       1  UNL1        0.0350
     32 H          -1.6851    1.9848    3.8959 H       1  UNL1        0.0350
     33 H           0.7203    1.1262    3.1239 H       1  UNL1        0.0581
     34 H           2.1541    0.7767    1.4059 H       1  UNL1        0.0630
     35 H           2.6419   -0.3837   -2.6955 H       1  UNL1        0.0624
     36 H           0.2984   -0.7754   -2.8957 H       1  UNL1        0.0624
     37 H          -1.7373   -1.1310   -3.0298 H       1  UNL1        0.0836
     38 H          -6.1367   -1.5411   -2.4098 H       1  UNL1        0.0640
     39 H          -7.7585   -1.1860   -0.5555 H       1  UNL1        0.0633
     40 H          -6.8673   -0.3783    1.6396 H       1  UNL1        0.0830
     41 H          -3.5921    0.4550    2.8486 H       1  UNL1        0.0581
     42 H           5.9166    2.4951    1.4117 H       1  UNL1        0.0830
     43 H           7.8860    1.4170    0.2715 H       1  UNL1        0.0655
@<TRIPOS>BOND
     1     1     2    1
     2     2     3    2
     3     3     4   ar
     4     4     5   ar
     5     5     6   ar
     6     6     7   ar
     7     7     8   ar
     8     8     9   ar
     9     9    10   ar
    10    10    11   ar
    11    11    12   ar
    12    12    13   ar
    13    13    14   ar
    14    14    15   ar
    15    15    16   ar
    16    16    17   ar
    17    17    18   ar
    18    18    19   ar
    19    19    20   ar
    20    20    21    2
    21     6    22    1
    22    22    23   ar
    23    23    24   ar
    24    24    25   ar
    25    25    26   ar
    26    26    27   ar
    27    27    28   ar
    28    28    29   ar
    29    29    30   ar
    30    21     1    1
    31    30    22   ar
    32    20     3   ar
    33    30    26   ar
    34     9     4   ar
    35    19    10   ar
    36    18    13   ar
    37     1    31    1
    38     1    32    1
    39     2    33    1
    40     5    34    1
    41     7    35    1
    42     8    36    1
    43    11    37    1
    44    14    38    1
    45    15    39    1
    46    16    40    1
    47    21    41    1
    48    24    42    1
    49    25    43    1
