@<TRIPOS>MOLECULE
*****
 47 53 0 0 0
SMALL
GASTEIGER

@<TRIPOS>ATOM
      1 C           0.5692   -3.9830   -1.1883 C.3     1  UNL1        0.0000
      2 C          -0.6938   -3.2033   -1.0034 C.2     1  UNL1        0.0000
      3 C          -0.3938   -1.9746   -0.5526 C.ar    1  UNL1        0.0000
      4 C          -1.2579   -0.8276   -0.3212 C.ar    1  UNL1        0.0000
      5 C          -2.6575   -0.9051   -0.3372 C.ar    1  UNL1        0.0000
      6 C          -3.4269    0.2288   -0.0841 C.ar    1  UNL1        0.0000
      7 C          -2.7320    1.3981    0.1946 C.ar    1  UNL1        0.0000
      8 N          -1.3813    1.5090    0.2121 N.ar    1  UNL1        0.0000
      9 C          -0.6364    0.4063   -0.0605 C.ar    1  UNL1        0.0000
     10 C           0.8807    0.5527    0.0243 C.ar    1  UNL1        0.0000
     11 C           1.6613   -0.5799    0.0782 C.ar    1  UNL1        0.0000
     12 C           3.1013   -0.4836    0.5437 C.ar    1  UNL1        0.0000
     13 C           3.7632   -1.6064    1.0804 C.ar    1  UNL1        0.0000
     14 C           5.0956   -1.5516    1.4990 C.ar    1  UNL1        0.0000
     15 C           5.7927   -0.3557    1.4277 C.ar    1  UNL1        0.0000
     16 C           5.1421    0.7911    0.9793 C.ar    1  UNL1        0.0000
     17 C           3.7982    0.7447    0.5628 C.ar    1  UNL1        0.0000
     18 C           3.0388    1.9598    0.2317 C.ar    1  UNL1        0.0000
     19 C           3.5580    3.2012    0.1170 C.2     1  UNL1        0.0000
     20 SI          2.2419    4.4569   -0.2707 Si      1  UNL1        0.0000
     21 C           1.0169    3.0630   -0.2672 C.2     1  UNL1        0.0000
     22 C           1.5742    1.8657    0.0233 C.ar    1  UNL1        0.0000
     23 C           1.0428   -1.8415   -0.3663 C.ar    1  UNL1        0.0000
     24 C           1.6141   -2.9885   -0.7797 C.2     1  UNL1        0.0000
     25 C          -4.8882    0.1718   -0.0995 C.ar    1  UNL1        0.0000
     26 C          -5.7522   -0.8492    0.2651 C.ar    1  UNL1        0.0000
     27 C          -7.0796   -0.4069    0.0516 C.ar    1  UNL1        0.0000
     28 C          -7.0050    0.8705   -0.4495 C.ar    1  UNL1        0.0000
     29 N          -5.6812    1.2111   -0.5417 N.ar    1  UNL1        0.0000
     30 H           0.5903   -4.8681   -0.5461 H       1  UNL1        0.0000
     31 H           0.6978   -4.2806   -2.2331 H       1  UNL1        0.0000
     32 H          -1.6723   -3.5803   -1.2565 H       1  UNL1        0.0000
     33 H          -3.1480   -1.8507   -0.5480 H       1  UNL1        0.0000
     34 H          -3.2503    2.3207    0.4405 H       1  UNL1        0.0000
     35 H           3.2415   -2.5494    1.2161 H       1  UNL1        0.0000
     36 H           5.5775   -2.4420    1.8942 H       1  UNL1        0.0000
     37 H           6.8270   -0.3032    1.7563 H       1  UNL1        0.0000
     38 H           5.6922    1.7272    0.9908 H       1  UNL1        0.0000
     39 H           4.5833    3.5112    0.2263 H       1  UNL1        0.0000
     40 H           2.4219    5.0654   -1.6115 H       1  UNL1        0.0000
     41 H           2.0360    5.4207    0.8378 H       1  UNL1        0.0000
     42 H          -0.0097    3.2712   -0.5153 H       1  UNL1        0.0000
     43 H           2.6701   -3.1936   -0.8612 H       1  UNL1        0.0000
     44 H          -5.4580   -1.8142    0.6583 H       1  UNL1        0.0000
     45 H          -7.9890   -0.9624    0.2413 H       1  UNL1        0.0000
     46 H          -7.7776    1.5647   -0.7523 H       1  UNL1        0.0000
     47 H          -5.3379    2.0897   -0.9063 H       1  UNL1        0.0000
@<TRIPOS>BOND
     1     1     2    1
     2     2     3    2
     3     3     4   ar
     4     4     5   ar
     5     5     6   ar
     6     6     7   ar
     7     7     8   ar
     8     8     9   ar
     9     9    10   ar
    10    10    11   ar
    11    11    12   ar
    12    12    13   ar
    13    13    14   ar
    14    14    15   ar
    15    15    16   ar
    16    16    17   ar
    17    17    18   ar
    18    18    19    2
    19    19    20    1
    20    20    21    1
    21    21    22    2
    22    11    23   ar
    23    23    24    2
    24     6    25    1
    25    25    26   ar
    26    26    27   ar
    27    27    28   ar
    28    28    29   ar
    29    24     1    1
    30    29    25   ar
    31    23     3   ar
    32     9     4   ar
    33    22    10   ar
    34    17    12   ar
    35    22    18   ar
    36     1    30    1
    37     1    31    1
    38     2    32    1
    39     5    33    1
    40     7    34    1
    41    13    35    1
    42    14    36    1
    43    15    37    1
    44    16    38    1
    45    19    39    1
    46    20    40    1
    47    20    41    1
    48    21    42    1
    49    24    43    1
    50    26    44    1
    51    27    45    1
    52    28    46    1
    53    29    47    1
