@<TRIPOS>MOLECULE
*****
 44 50 0 0 0
SMALL
GASTEIGER

@<TRIPOS>ATOM
      1 SI          1.9588   -3.0911    2.5714 Si      1  UNL1        0.0000
      2 C           2.8775   -2.0370    1.3424 C.2     1  UNL1        0.0000
      3 C           2.0395   -1.2574    0.6260 C.ar    1  UNL1        0.0000
      4 C           2.4509   -0.3130   -0.4184 C.ar    1  UNL1        0.0000
      5 C           1.4905    0.4194   -1.0276 C.ar    1  UNL1        0.0000
      6 C           0.0523    0.3049   -0.6938 C.ar    1  UNL1        0.0000
      7 C          -0.8741    1.1022   -1.3762 C.ar    1  UNL1        0.0000
      8 C          -2.2355    1.0417   -1.1181 C.ar    1  UNL1        0.0000
      9 N          -3.0291    1.8493   -1.8316 N.ar    1  UNL1        0.0000
     10 C          -4.3563    1.8042   -1.5944 C.ar    1  UNL1        0.0000
     11 C          -4.9665    0.9773   -0.6599 C.ar    1  UNL1        0.0000
     12 C          -6.3618    0.9934   -0.4758 C.ar    1  UNL1        0.0000
     13 C          -6.9638    0.1611    0.4630 C.ar    1  UNL1        0.0000
     14 C          -6.1773   -0.6923    1.2237 C.ar    1  UNL1        0.0000
     15 C          -4.7900   -0.7119    1.0444 C.ar    1  UNL1        0.0000
     16 C          -4.1401    0.1214    0.0977 C.ar    1  UNL1        0.0000
     17 C          -2.7224    0.1499   -0.1353 C.ar    1  UNL1        0.0000
     18 C          -1.7790   -0.6565    0.5549 C.ar    1  UNL1        0.0000
     19 C          -0.4046   -0.5898    0.2889 C.ar    1  UNL1        0.0000
     20 C           0.6079   -1.4101    0.9892 C.ar    1  UNL1        0.0000
     21 C           0.3703   -2.3100    1.9670 C.2     1  UNL1        0.0000
     22 C           3.7869   -0.1117   -0.8589 C.ar    1  UNL1        0.0000
     23 S           4.6964   -1.2421   -1.8140 S.2     1  UNL1        0.0000
     24 C           6.1117   -0.2262   -1.8657 C.ar    1  UNL1        0.0000
     25 C           5.8338    0.8983   -1.1728 C.ar    1  UNL1        0.0000
     26 C           6.4315    2.1099   -0.7928 C.ar    1  UNL1        0.0000
     27 C           5.4500    2.7784   -0.0491 C.ar    1  UNL1        0.0000
     28 O           4.2607    2.0837    0.0773 O.2     1  UNL1        0.0000
     29 C           4.5739    0.9602   -0.6277 C.ar    1  UNL1        0.0000
     30 H           2.2605   -2.7317    3.9779 H       1  UNL1        0.0000
     31 H           2.0277   -4.5376    2.2531 H       1  UNL1        0.0000
     32 H           3.9518   -2.0886    1.2643 H       1  UNL1        0.0000
     33 H           1.7481    1.1319   -1.8077 H       1  UNL1        0.0000
     34 H          -0.5324    1.7995   -2.1389 H       1  UNL1        0.0000
     35 H          -4.9393    2.4861   -2.2087 H       1  UNL1        0.0000
     36 H          -6.9886    1.6585   -1.0666 H       1  UNL1        0.0000
     37 H          -8.0418    0.1794    0.5993 H       1  UNL1        0.0000
     38 H          -6.6380   -1.3464    1.9598 H       1  UNL1        0.0000
     39 H          -4.2217   -1.3984    1.6658 H       1  UNL1        0.0000
     40 H          -2.1244   -1.3490    1.3143 H       1  UNL1        0.0000
     41 H          -0.5720   -2.5934    2.4043 H       1  UNL1        0.0000
     42 H           7.0059   -0.5327   -2.3889 H       1  UNL1        0.0000
     43 H           7.4246    2.4762   -1.0090 H       1  UNL1        0.0000
     44 H           5.4474    3.7402    0.4471 H       1  UNL1        0.0000
@<TRIPOS>BOND
     1     1     2    1
     2     2     3    2
     3     3     4   ar
     4     4     5   ar
     5     5     6   ar
     6     6     7   ar
     7     7     8   ar
     8     8     9   ar
     9     9    10   ar
    10    10    11   ar
    11    11    12   ar
    12    12    13   ar
    13    13    14   ar
    14    14    15   ar
    15    15    16   ar
    16    16    17   ar
    17    17    18   ar
    18    18    19   ar
    19    19    20   ar
    20    20    21    2
    21     4    22    1
    22    22    23   ar
    23    23    24   ar
    24    24    25   ar
    25    25    26   ar
    26    26    27   ar
    27    27    28   ar
    28    28    29   ar
    29    21     1    1
    30    29    22   ar
    31    20     3   ar
    32    29    25   ar
    33    19     6   ar
    34    17     8   ar
    35    16    11   ar
    36     1    30    1
    37     1    31    1
    38     2    32    1
    39     5    33    1
    40     7    34    1
    41    10    35    1
    42    12    36    1
    43    13    37    1
    44    14    38    1
    45    15    39    1
    46    18    40    1
    47    21    41    1
    48    24    42    1
    49    26    43    1
    50    27    44    1
