@<TRIPOS>MOLECULE
*****
 49 56 0 0 0
SMALL
GASTEIGER

@<TRIPOS>ATOM
      1 C          -1.7048   -3.7590   -1.7978 C.3     1  UNL1        0.0000
      2 C          -0.4297   -2.9875   -1.6917 C.2     1  UNL1        0.0000
      3 C          -0.6654   -1.8007   -1.1066 C.ar    1  UNL1        0.0000
      4 C           0.2851   -0.7288   -0.8020 C.ar    1  UNL1        0.0000
      5 C           1.6535   -0.8160   -1.0963 C.ar    1  UNL1        0.0000
      6 C           2.5094    0.2384   -0.7796 C.ar    1  UNL1        0.0000
      7 C           1.9395    1.3470   -0.1716 C.ar    1  UNL1        0.0000
      8 N           0.6247    1.4646    0.1317 N.ar    1  UNL1        0.0000
      9 C          -0.2057    0.4355   -0.1811 C.ar    1  UNL1        0.0000
     10 C          -1.6449    0.5774    0.1565 C.ar    1  UNL1        0.0000
     11 C          -2.2407    1.7070    0.7790 C.ar    1  UNL1        0.0000
     12 C          -1.6649    2.8850    1.1969 C.ar    1  UNL1        0.0000
     13 N          -2.6505    3.6799    1.7427 N.ar    1  UNL1        0.0000
     14 C          -3.8646    3.0363    1.6877 C.ar    1  UNL1        0.0000
     15 C          -3.6346    1.8208    1.0975 C.ar    1  UNL1        0.0000
     16 C          -4.5569    0.8336    0.8300 C.ar    1  UNL1        0.0000
     17 C          -5.9736    0.7414    1.0601 C.2     1  UNL1        0.0000
     18 C          -6.3413   -0.4594    0.5888 C.2     1  UNL1        0.0000
     19 C          -5.1842   -1.2501    0.0097 C.3     1  UNL1        0.0000
     20 C          -4.0182   -0.3138    0.2090 C.ar    1  UNL1        0.0000
     21 C          -2.6306   -0.4672   -0.1264 C.ar    1  UNL1        0.0000
     22 C          -2.0879   -1.6850   -0.7816 C.ar    1  UNL1        0.0000
     23 C          -2.6947   -2.8182   -1.1801 C.2     1  UNL1        0.0000
     24 C           3.9432    0.1827   -1.0539 C.ar    1  UNL1        0.0000
     25 S           4.4939   -0.0737   -2.6804 S.2     1  UNL1        0.0000
     26 C           6.1591    0.0171   -2.2397 C.ar    1  UNL1        0.0000
     27 C           6.2599    0.2329   -0.9006 C.ar    1  UNL1        0.0000
     28 SI          7.6648    0.4433    0.3357 Si      1  UNL1        0.0000
     29 C           6.3454    0.6343    1.7070 C.2     1  UNL1        0.0000
     30 C           5.0935    0.5409    1.2067 C.2     1  UNL1        0.0000
     31 C           5.0209    0.3279   -0.2106 C.ar    1  UNL1        0.0000
     32 H          -1.6485   -4.6966   -1.2373 H       1  UNL1        0.0000
     33 H          -1.9564   -3.9670   -2.8418 H       1  UNL1        0.0000
     34 H           0.5184   -3.3614   -2.0449 H       1  UNL1        0.0000
     35 H           2.0595   -1.7079   -1.5643 H       1  UNL1        0.0000
     36 H           2.5406    2.2119    0.0977 H       1  UNL1        0.0000
     37 H          -0.6476    3.2486    1.1632 H       1  UNL1        0.0000
     38 H          -2.4977    4.6032    2.1263 H       1  UNL1        0.0000
     39 H          -4.7604    3.5054    2.0698 H       1  UNL1        0.0000
     40 H          -6.5901    1.4955    1.5184 H       1  UNL1        0.0000
     41 H          -7.3531   -0.8390    0.6114 H       1  UNL1        0.0000
     42 H          -5.0524   -2.1783    0.5730 H       1  UNL1        0.0000
     43 H          -5.3642   -1.4443   -1.0515 H       1  UNL1        0.0000
     44 H          -3.7352   -3.0772   -1.0993 H       1  UNL1        0.0000
     45 H           6.9342   -0.0937   -2.9858 H       1  UNL1        0.0000
     46 H           8.4378    1.6982    0.1634 H       1  UNL1        0.0000
     47 H           8.4754   -0.7821    0.5435 H       1  UNL1        0.0000
     48 H           6.6333    0.7871    2.7347 H       1  UNL1        0.0000
     49 H           4.2067    0.6110    1.8268 H       1  UNL1        0.0000
@<TRIPOS>BOND
     1     1     2    1
     2     2     3    2
     3     3     4   ar
     4     4     5   ar
     5     5     6   ar
     6     6     7   ar
     7     7     8   ar
     8     8     9   ar
     9     9    10   ar
    10    10    11   ar
    11    11    12   ar
    12    12    13   ar
    13    13    14   ar
    14    14    15   ar
    15    15    16   ar
    16    16    17    1
    17    17    18    2
    18    18    19    1
    19    19    20    1
    20    20    21   ar
    21    21    22   ar
    22    22    23    2
    23     6    24    1
    24    24    25   ar
    25    25    26   ar
    26    26    27   ar
    27    27    28    1
    28    28    29    1
    29    29    30    2
    30    30    31    1
    31    23     1    1
    32    31    24   ar
    33    22     3   ar
    34    31    27   ar
    35     9     4   ar
    36    21    10   ar
    37    15    11   ar
    38    20    16   ar
    39     1    32    1
    40     1    33    1
    41     2    34    1
    42     5    35    1
    43     7    36    1
    44    12    37    1
    45    13    38    1
    46    14    39    1
    47    17    40    1
    48    18    41    1
    49    19    42    1
    50    19    43    1
    51    23    44    1
    52    26    45    1
    53    28    46    1
    54    28    47    1
    55    29    48    1
    56    30    49    1
