@<TRIPOS>MOLECULE
*****
 46 53 0 0 0
SMALL
GASTEIGER

@<TRIPOS>ATOM
      1 C          -1.4220    3.3852   -1.6393 C.3     1  UNL1       -0.0148
      2 C          -0.1907    2.7023   -1.1252 C.2     1  UNL1       -0.0719
      3 C          -0.5323    1.5672   -0.4916 C.ar    1  UNL1       -0.0119
      4 C           0.3227    0.5725    0.1694 C.ar    1  UNL1        0.0090
      5 C           1.7178    0.6942    0.2342 C.ar    1  UNL1       -0.0422
      6 C           2.4874   -0.2786    0.8758 C.ar    1  UNL1        0.0095
      7 C           1.7938   -1.3519    1.4232 C.ar    1  UNL1        0.0366
      8 N           0.4469   -1.5054    1.3853 N.ar    1  UNL1       -0.2537
      9 C          -0.2912   -0.5513    0.7640 C.ar    1  UNL1        0.0800
     10 C          -1.7657   -0.7269    0.7292 C.ar    1  UNL1        0.0213
     11 C          -2.5070   -1.7952    1.2828 C.ar    1  UNL1        0.0100
     12 C          -2.0456   -2.9003    1.9689 C.ar    1  UNL1        0.0101
     13 N          -3.1246   -3.6909    2.3295 N.ar    1  UNL1       -0.3659
     14 C          -4.2997   -3.1226    1.8903 C.ar    1  UNL1        0.0101
     15 C          -3.9058   -1.9811    1.2621 C.ar    1  UNL1        0.0108
     16 C          -4.6960   -1.0049    0.6210 C.ar    1  UNL1        0.0299
     17 C          -6.0687   -0.9000    0.4336 C.ar    1  UNL1       -0.0155
     18 C          -6.2060    0.2812   -0.2665 C.ar    1  UNL1        0.0932
     19 O          -4.9935    0.8701   -0.4975 O.2     1  UNL1       -0.4623
     20 C          -4.0284    0.0631    0.0609 C.ar    1  UNL1        0.1437
     21 C          -2.6239    0.2419    0.0862 C.ar    1  UNL1        0.0351
     22 C          -1.9839    1.4099   -0.5353 C.ar    1  UNL1       -0.0098
     23 C          -2.5100    2.4553   -1.1960 C.2     1  UNL1       -0.0718
     24 C           3.9500   -0.1651    0.9489 C.ar    1  UNL1        0.0482
     25 S           4.7682   -0.5269    2.4310 S.2     1  UNL1       -0.0923
     26 C           6.3122   -0.1702    1.7804 C.ar    1  UNL1        0.0038
     27 C           6.2215    0.2229    0.4717 C.ar    1  UNL1        0.0968
     28 N           7.3090    0.5628   -0.2741 N.ar    1  UNL1       -0.2514
     29 C           6.9363    0.9089   -1.5366 C.ar    1  UNL1        0.0464
     30 C           5.6200    0.9208   -2.0135 C.ar    1  UNL1        0.0464
     31 N           4.5184    0.5892   -1.2859 N.ar    1  UNL1       -0.2508
     32 C           4.8605    0.2331   -0.0120 C.ar    1  UNL1        0.1039
     33 H          -1.3982    3.4741   -2.7293 H       1  UNL1        0.0350
     34 H          -1.5412    4.3754   -1.1901 H       1  UNL1        0.0350
     35 H           0.8054    3.0923   -1.2637 H       1  UNL1        0.0581
     36 H           2.2097    1.5517   -0.2167 H       1  UNL1        0.0631
     37 H           2.3113   -2.1661    1.9242 H       1  UNL1        0.0836
     38 H          -1.0491   -3.2165    2.2449 H       1  UNL1        0.0813
     39 H          -3.0522   -4.5600    2.8421 H       1  UNL1        0.1648
     40 H          -5.2592   -3.5858    2.0716 H       1  UNL1        0.0813
     41 H          -6.8596   -1.5641    0.7474 H       1  UNL1        0.0655
     42 H          -7.0576    0.8199   -0.6583 H       1  UNL1        0.1030
     43 H          -3.5551    2.6315   -1.3974 H       1  UNL1        0.0581
     44 H           7.2041   -0.2630    2.3829 H       1  UNL1        0.0715
     45 H           7.7556    1.1904   -2.1924 H       1  UNL1        0.0845
     46 H           5.4163    1.2108   -3.0407 H       1  UNL1        0.0845
@<TRIPOS>BOND
     1     1     2    1
     2     2     3    2
     3     3     4   ar
     4     4     5   ar
     5     5     6   ar
     6     6     7   ar
     7     7     8   ar
     8     8     9   ar
     9     9    10   ar
    10    10    11   ar
    11    11    12   ar
    12    12    13   ar
    13    13    14   ar
    14    14    15   ar
    15    15    16   ar
    16    16    17   ar
    17    17    18   ar
    18    18    19   ar
    19    19    20   ar
    20    20    21   ar
    21    21    22   ar
    22    22    23    2
    23     6    24    1
    24    24    25   ar
    25    25    26   ar
    26    26    27   ar
    27    27    28   ar
    28    28    29   ar
    29    29    30   ar
    30    30    31   ar
    31    31    32   ar
    32    23     1    1
    33    32    24   ar
    34    22     3   ar
    35    32    27   ar
    36     9     4   ar
    37    21    10   ar
    38    15    11   ar
    39    20    16   ar
    40     1    33    1
    41     1    34    1
    42     2    35    1
    43     5    36    1
    44     7    37    1
    45    12    38    1
    46    13    39    1
    47    14    40    1
    48    17    41    1
    49    18    42    1
    50    23    43    1
    51    26    44    1
    52    29    45    1
    53    30    46    1
