@<TRIPOS>MOLECULE
*****
 49 56 0 0 0
SMALL
GASTEIGER

@<TRIPOS>ATOM
      1 C          -0.7406   -4.1517    1.6184 C.3     1  UNL1        0.0000
      2 C           0.4316   -3.3543    1.1508 C.2     1  UNL1        0.0000
      3 C           0.0067   -2.1752    0.6674 C.ar    1  UNL1        0.0000
      4 C           0.7938   -1.0528    0.1748 C.ar    1  UNL1        0.0000
      5 C           2.1691   -1.1504   -0.0896 C.ar    1  UNL1        0.0000
      6 C           2.8635   -0.0655   -0.6210 C.ar    1  UNL1        0.0000
      7 C           2.1211    1.0759   -0.8779 C.ar    1  UNL1        0.0000
      8 N           0.7937    1.1991   -0.6317 N.ar    1  UNL1        0.0000
      9 C           0.1225    0.1566   -0.0770 C.ar    1  UNL1        0.0000
     10 C          -1.3757    0.3193    0.1266 C.ar    1  UNL1        0.0000
     11 C          -2.0375    1.6107    0.0518 C.ar    1  UNL1        0.0000
     12 C          -1.3634    2.8625    0.1304 C.ar    1  UNL1        0.0000
     13 C          -2.0062    4.0985    0.0286 C.ar    1  UNL1        0.0000
     14 C          -3.3728    4.1401   -0.1441 C.ar    1  UNL1        0.0000
     15 C          -4.0845    2.9455   -0.1895 C.ar    1  UNL1        0.0000
     16 C          -3.4540    1.6783   -0.0771 C.ar    1  UNL1        0.0000
     17 C          -4.1911    0.4770   -0.0930 C.ar    1  UNL1        0.0000
     18 C          -5.6595    0.3813   -0.3200 C.2     1  UNL1        0.0000
     19 C          -6.1622   -0.8623   -0.3034 C.2     1  UNL1        0.0000
     20 SI         -4.8671   -2.1404    0.0184 Si      1  UNL1        0.0000
     21 C          -3.5552   -0.7780    0.1343 C.ar    1  UNL1        0.0000
     22 C          -2.1694   -0.8637    0.3275 C.ar    1  UNL1        0.0000
     23 C          -1.4470   -2.0958    0.7386 C.ar    1  UNL1        0.0000
     24 C          -1.8827   -3.2233    1.3322 C.2     1  UNL1        0.0000
     25 C           4.2867   -0.1339   -0.9116 C.ar    1  UNL1        0.0000
     26 S           4.9627   -1.3473   -1.9355 S.2     1  UNL1        0.0000
     27 C           6.5637   -0.7325   -1.7730 C.ar    1  UNL1        0.0000
     28 C           6.5146    0.3439   -0.9575 C.ar    1  UNL1        0.0000
     29 C           7.5011    1.2323   -0.4673 C.ar    1  UNL1        0.0000
     30 C           6.9639    2.2131    0.3743 C.ar    1  UNL1        0.0000
     31 S           5.2275    2.1436    0.6454 S.2     1  UNL1        0.0000
     32 C           5.2652    0.7097   -0.4551 C.ar    1  UNL1        0.0000
     33 H          -0.6685   -4.3671    2.6885 H       1  UNL1        0.0000
     34 H          -0.8386   -5.0862    1.0587 H       1  UNL1        0.0000
     35 H           1.4527   -3.6895    1.2435 H       1  UNL1        0.0000
     36 H           2.6986   -2.0780    0.1084 H       1  UNL1        0.0000
     37 H           2.5756    1.9607   -1.3169 H       1  UNL1        0.0000
     38 H          -0.2926    2.9042    0.3110 H       1  UNL1        0.0000
     39 H          -1.4287    5.0164    0.0915 H       1  UNL1        0.0000
     40 H          -3.8898    5.0914   -0.2268 H       1  UNL1        0.0000
     41 H          -5.1617    3.0266   -0.3009 H       1  UNL1        0.0000
     42 H          -6.2771    1.2489   -0.5017 H       1  UNL1        0.0000
     43 H          -7.1967   -1.1290   -0.4559 H       1  UNL1        0.0000
     44 H          -5.1098   -2.8349    1.3088 H       1  UNL1        0.0000
     45 H          -4.6657   -3.0420   -1.1434 H       1  UNL1        0.0000
     46 H          -2.8838   -3.4715    1.6370 H       1  UNL1        0.0000
     47 H           7.4030   -1.1954   -2.2725 H       1  UNL1        0.0000
     48 H           8.5581    1.1810   -0.6988 H       1  UNL1        0.0000
     49 H           7.5066    3.0042    0.8741 H       1  UNL1        0.0000
@<TRIPOS>BOND
     1     1     2    1
     2     2     3    2
     3     3     4   ar
     4     4     5   ar
     5     5     6   ar
     6     6     7   ar
     7     7     8   ar
     8     8     9   ar
     9     9    10   ar
    10    10    11   ar
    11    11    12   ar
    12    12    13   ar
    13    13    14   ar
    14    14    15   ar
    15    15    16   ar
    16    16    17   ar
    17    17    18    1
    18    18    19    2
    19    19    20    1
    20    20    21    1
    21    21    22   ar
    22    22    23   ar
    23    23    24    2
    24     6    25    1
    25    25    26   ar
    26    26    27   ar
    27    27    28   ar
    28    28    29   ar
    29    29    30   ar
    30    30    31   ar
    31    31    32   ar
    32    24     1    1
    33    32    25   ar
    34    23     3   ar
    35    32    28   ar
    36     9     4   ar
    37    22    10   ar
    38    16    11   ar
    39    21    17   ar
    40     1    33    1
    41     1    34    1
    42     2    35    1
    43     5    36    1
    44     7    37    1
    45    12    38    1
    46    13    39    1
    47    14    40    1
    48    15    41    1
    49    18    42    1
    50    19    43    1
    51    20    44    1
    52    20    45    1
    53    24    46    1
    54    27    47    1
    55    29    48    1
    56    30    49    1
