@<TRIPOS>MOLECULE
*****
 44 50 0 0 0
SMALL
GASTEIGER

@<TRIPOS>ATOM
      1 C          -0.9666    0.5299   -3.8666 C.3     1  UNL1       -0.0148
      2 C           0.3097    0.4666   -3.0897 C.2     1  UNL1       -0.0719
      3 C           0.0317    0.2566   -1.7922 C.ar    1  UNL1       -0.0120
      4 C           0.9542   -0.0647   -0.7069 C.ar    1  UNL1        0.0090
      5 C           2.3483    0.0156   -0.8132 C.ar    1  UNL1       -0.0428
      6 C           3.1673   -0.3563    0.2595 C.ar    1  UNL1        0.0023
      7 C           2.5137   -0.8031    1.4055 C.ar    1  UNL1        0.0360
      8 N           1.1693   -0.8888    1.5498 N.ar    1  UNL1       -0.2537
      9 C           0.3926   -0.5169    0.4963 C.ar    1  UNL1        0.0793
     10 C          -1.0864   -0.5587    0.7141 C.ar    1  UNL1        0.0093
     11 C          -1.5991   -1.0745    1.9144 C.ar    1  UNL1       -0.0514
     12 C          -2.9621   -1.0524    2.1997 C.ar    1  UNL1       -0.0533
     13 C          -3.8717   -0.4328    1.3458 C.ar    1  UNL1       -0.0151
     14 C          -5.2264   -0.3952    1.7711 C.ar    1  UNL1       -0.0519
     15 C          -6.2521    0.2556    1.0792 C.ar    1  UNL1       -0.0329
     16 C          -5.8528    0.9443   -0.0783 C.ar    1  UNL1        0.1005
     17 N          -6.6738    1.6842   -0.8395 N.ar    1  UNL1       -0.1908
     18 S          -5.7353    2.3566   -2.0228 S.2     1  UNL1        0.1165
     19 N          -4.2621    1.7204   -1.6347 N.ar    1  UNL1       -0.1901
     20 C          -4.4194    0.9136   -0.5692 C.ar    1  UNL1        0.1081
     21 C          -3.3912    0.1414    0.1178 C.ar    1  UNL1        0.0186
     22 C          -2.0070   -0.0429   -0.2493 C.ar    1  UNL1        0.0014
     23 C          -1.4171    0.2226   -1.5884 C.ar    1  UNL1       -0.0127
     24 C          -1.9929    0.2933   -2.8017 C.2     1  UNL1       -0.0719
     25 C           4.6302   -0.2843    0.1805 C.ar    1  UNL1        0.0017
     26 C           5.3946    0.3616    1.1612 C.ar    1  UNL1       -0.0511
     27 C           6.7836    0.4122    1.0523 C.ar    1  UNL1       -0.0430
     28 C           7.3791   -0.1888   -0.0427 C.ar    1  UNL1        0.0276
     29 N           6.6892   -0.8230   -1.0123 N.ar    1  UNL1       -0.2627
     30 C           5.3410   -0.8557   -0.8769 C.ar    1  UNL1        0.0353
     31 H          -1.1005    1.5062   -4.3409 H       1  UNL1        0.0350
     32 H          -1.0016   -0.2577   -4.6250 H       1  UNL1        0.0350
     33 H           1.2850    0.4964   -3.5494 H       1  UNL1        0.0581
     34 H           2.8000    0.3814   -1.7318 H       1  UNL1        0.0631
     35 H           3.0736   -1.1268    2.2804 H       1  UNL1        0.0836
     36 H          -0.9247   -1.5073    2.6530 H       1  UNL1        0.0624
     37 H          -3.2877   -1.4887    3.1433 H       1  UNL1        0.0624
     38 H          -5.5044   -0.8883    2.7055 H       1  UNL1        0.0624
     39 H          -7.2749    0.2733    1.4344 H       1  UNL1        0.0640
     40 H          -3.0391    0.1805   -3.0333 H       1  UNL1        0.0581
     41 H           4.9147    0.8438    2.0102 H       1  UNL1        0.0625
     42 H           7.3850    0.9133    1.8026 H       1  UNL1        0.0633
     43 H           8.4574   -0.1750   -0.1730 H       1  UNL1        0.0829
     44 H           4.8289   -1.3876   -1.6757 H       1  UNL1        0.0836
@<TRIPOS>BOND
     1     1     2    1
     2     2     3    2
     3     3     4   ar
     4     4     5   ar
     5     5     6   ar
     6     6     7   ar
     7     7     8   ar
     8     8     9   ar
     9     9    10   ar
    10    10    11   ar
    11    11    12   ar
    12    12    13   ar
    13    13    14   ar
    14    14    15   ar
    15    15    16   ar
    16    16    17   ar
    17    17    18   ar
    18    18    19   ar
    19    19    20   ar
    20    20    21   ar
    21    21    22   ar
    22    22    23   ar
    23    23    24    2
    24     6    25    1
    25    25    26   ar
    26    26    27   ar
    27    27    28   ar
    28    28    29   ar
    29    29    30   ar
    30    24     1    1
    31    30    25   ar
    32    23     3   ar
    33     9     4   ar
    34    22    10   ar
    35    21    13   ar
    36    20    16   ar
    37     1    31    1
    38     1    32    1
    39     2    33    1
    40     5    34    1
    41     7    35    1
    42    11    36    1
    43    12    37    1
    44    14    38    1
    45    15    39    1
    46    24    40    1
    47    26    41    1
    48    27    42    1
    49    28    43    1
    50    30    44    1
