@<TRIPOS>MOLECULE
*****
 48 54 0 0 0
SMALL
GASTEIGER

@<TRIPOS>ATOM
      1 C          -2.3544   -3.2409   -1.3480 C.3     1  UNL1       -0.0148
      2 C          -1.0319   -2.5490   -1.4130 C.2     1  UNL1       -0.0719
      3 C          -1.1114   -1.3696   -0.7746 C.ar    1  UNL1       -0.0120
      4 C          -0.0317   -0.4417   -0.4473 C.ar    1  UNL1        0.0090
      5 C           1.2786   -0.5674   -0.9256 C.ar    1  UNL1       -0.0428
      6 C           2.2713    0.3332   -0.5269 C.ar    1  UNL1        0.0015
      7 C           1.8750    1.3410    0.3468 C.ar    1  UNL1        0.0360
      8 N           0.6184    1.5001    0.8291 N.ar    1  UNL1       -0.2537
      9 C          -0.3321    0.6116    0.4292 C.ar    1  UNL1        0.0793
     10 C          -1.7191    0.8527    0.9325 C.ar    1  UNL1        0.0092
     11 C          -1.9597    1.9093    1.8259 C.ar    1  UNL1       -0.0514
     12 C          -3.2456    2.2219    2.2531 C.ar    1  UNL1       -0.0534
     13 C          -4.3507    1.5346    1.7516 C.ar    1  UNL1       -0.0173
     14 C          -5.6358    1.9360    2.1562 C.ar    1  UNL1       -0.0540
     15 C          -6.7758    1.3313    1.6377 C.ar    1  UNL1       -0.0612
     16 C          -6.6404    0.3317    0.6899 C.ar    1  UNL1       -0.0611
     17 C          -5.3647   -0.0814    0.2903 C.ar    1  UNL1       -0.0534
     18 C          -4.1726    0.4674    0.8323 C.ar    1  UNL1       -0.0095
     19 C          -2.8320    0.0642    0.4974 C.ar    1  UNL1       -0.0007
     20 C          -2.4743   -1.1551   -0.2841 C.ar    1  UNL1       -0.0128
     21 C          -3.1787   -2.2695   -0.5579 C.2     1  UNL1       -0.0719
     22 C           3.6372    0.2267   -1.0154 C.ar    1  UNL1       -0.0073
     23 C           4.0057    0.2267   -2.3901 C.ar    1  UNL1       -0.0533
     24 C           5.3588    0.1288   -2.8752 C.ar    1  UNL1       -0.0605
     25 C           6.4939    0.0145   -2.0427 C.ar    1  UNL1       -0.0526
     26 C           6.1168    0.0069   -0.7072 C.ar    1  UNL1       -0.0000
     27 C           6.9657   -0.1076    0.3627 C.ar    1  UNL1        0.0094
     28 N           6.1828   -0.0925    1.4973 N.ar    1  UNL1       -0.3659
     29 C           4.8503    0.0286    1.1581 C.ar    1  UNL1        0.0100
     30 C           4.7801    0.1066   -0.2127 C.ar    1  UNL1        0.0071
     31 H          -2.2705   -4.1984   -0.8256 H       1  UNL1        0.0350
     32 H          -2.7736   -3.3997   -2.3456 H       1  UNL1        0.0350
     33 H          -0.1494   -2.9951   -1.8443 H       1  UNL1        0.0581
     34 H           1.5389   -1.3775   -1.6014 H       1  UNL1        0.0631
     35 H           2.5841    2.0903    0.6922 H       1  UNL1        0.0836
     36 H          -1.1311    2.5113    2.1965 H       1  UNL1        0.0624
     37 H          -3.3724    3.0462    2.9520 H       1  UNL1        0.0624
     38 H          -5.7593    2.7437    2.8754 H       1  UNL1        0.0624
     39 H          -7.7617    1.6594    1.9543 H       1  UNL1        0.0618
     40 H          -7.5218   -0.1230    0.2454 H       1  UNL1        0.0618
     41 H          -5.3255   -0.8168   -0.5049 H       1  UNL1        0.0624
     42 H          -4.1808   -2.5085   -0.2437 H       1  UNL1        0.0581
     43 H           3.2166    0.3198   -3.1385 H       1  UNL1        0.0624
     44 H           5.5126    0.1462   -3.9548 H       1  UNL1        0.0618
     45 H           7.5049   -0.0610   -2.4155 H       1  UNL1        0.0624
     46 H           8.0404   -0.2052    0.4340 H       1  UNL1        0.0813
     47 H           6.5328   -0.1702    2.4435 H       1  UNL1        0.1648
     48 H           4.0925    0.0395    1.9301 H       1  UNL1        0.0813
@<TRIPOS>BOND
     1     1     2    1
     2     2     3    2
     3     3     4   ar
     4     4     5   ar
     5     5     6   ar
     6     6     7   ar
     7     7     8   ar
     8     8     9   ar
     9     9    10   ar
    10    10    11   ar
    11    11    12   ar
    12    12    13   ar
    13    13    14   ar
    14    14    15   ar
    15    15    16   ar
    16    16    17   ar
    17    17    18   ar
    18    18    19   ar
    19    19    20   ar
    20    20    21    2
    21     6    22    1
    22    22    23   ar
    23    23    24   ar
    24    24    25   ar
    25    25    26   ar
    26    26    27   ar
    27    27    28   ar
    28    28    29   ar
    29    29    30   ar
    30    21     1    1
    31    30    22   ar
    32    20     3   ar
    33    30    26   ar
    34     9     4   ar
    35    19    10   ar
    36    18    13   ar
    37     1    31    1
    38     1    32    1
    39     2    33    1
    40     5    34    1
    41     7    35    1
    42    11    36    1
    43    12    37    1
    44    14    38    1
    45    15    39    1
    46    16    40    1
    47    17    41    1
    48    21    42    1
    49    23    43    1
    50    24    44    1
    51    25    45    1
    52    27    46    1
    53    28    47    1
    54    29    48    1
