@<TRIPOS>MOLECULE
*****
 48 54 0 0 0
SMALL
GASTEIGER

@<TRIPOS>ATOM
      1 C          -0.9149   -4.1627    0.4127 C.3     1  UNL1        0.0000
      2 C           0.3031   -3.3156    0.5857 C.2     1  UNL1        0.0000
      3 C          -0.0250   -2.0252    0.4069 C.ar    1  UNL1        0.0000
      4 C           0.8550   -0.8763    0.2125 C.ar    1  UNL1        0.0000
      5 C           2.2524   -0.9876    0.2783 C.ar    1  UNL1        0.0000
      6 C           3.0446    0.0617   -0.1697 C.ar    1  UNL1        0.0000
      7 N           2.4862    1.1736   -0.6974 N.ar    1  UNL1        0.0000
      8 C           1.1297    1.2550   -0.7310 C.ar    1  UNL1        0.0000
      9 C           0.2422    0.3139   -0.2184 C.ar    1  UNL1        0.0000
     10 C          -1.2695    0.5149   -0.1762 C.ar    1  UNL1        0.0000
     11 C          -2.0984   -0.5741   -0.0004 C.ar    1  UNL1        0.0000
     12 C          -3.6039   -0.3815   -0.0040 C.ar    1  UNL1        0.0000
     13 C          -4.4966   -1.3287    0.4989 C.ar    1  UNL1        0.0000
     14 N          -5.8508   -1.2765    0.4055 N.ar    1  UNL1        0.0000
     15 C          -6.3696   -0.1917   -0.1908 C.ar    1  UNL1        0.0000
     16 C          -5.6020    0.8669   -0.6332 C.ar    1  UNL1        0.0000
     17 C          -4.2084    0.7933   -0.4947 C.ar    1  UNL1        0.0000
     18 C          -3.3398    1.9696   -0.6630 C.ar    1  UNL1        0.0000
     19 C          -3.7799    3.2274   -0.8826 C.2     1  UNL1        0.0000
     20 SI         -2.4341    4.4800   -0.5841 Si      1  UNL1        0.0000
     21 C          -1.3168    3.0518   -0.1336 C.2     1  UNL1        0.0000
     22 C          -1.9038    1.8491   -0.3272 C.ar    1  UNL1        0.0000
     23 C          -1.4578   -1.8940    0.1674 C.ar    1  UNL1        0.0000
     24 C          -1.9649   -3.1398    0.0977 C.2     1  UNL1        0.0000
     25 C           4.5220    0.0344   -0.1398 C.ar    1  UNL1        0.0000
     26 C           5.2560   -1.1569   -0.2922 C.ar    1  UNL1        0.0000
     27 C           6.6549   -1.1610   -0.2540 C.ar    1  UNL1        0.0000
     28 C           7.3522    0.0287   -0.0666 C.ar    1  UNL1        0.0000
     29 C           6.6529    1.2227    0.0766 C.ar    1  UNL1        0.0000
     30 C           5.2553    1.2231    0.0372 C.ar    1  UNL1        0.0000
     31 H          -1.1551   -4.7117    1.3277 H       1  UNL1        0.0000
     32 H          -0.7907   -4.8640   -0.4176 H       1  UNL1        0.0000
     33 H           1.2925   -3.7251    0.7142 H       1  UNL1        0.0000
     34 H           2.7126   -1.8924    0.6568 H       1  UNL1        0.0000
     35 H           0.7876    2.1467   -1.2443 H       1  UNL1        0.0000
     36 H          -4.1586   -2.1964    1.0534 H       1  UNL1        0.0000
     37 H          -7.4524   -0.1744   -0.2709 H       1  UNL1        0.0000
     38 H          -6.0973    1.7422   -1.0347 H       1  UNL1        0.0000
     39 H          -4.7870    3.5642   -1.0629 H       1  UNL1        0.0000
     40 H          -2.7259    5.3608    0.5716 H       1  UNL1        0.0000
     41 H          -2.0056    5.1607   -1.8289 H       1  UNL1        0.0000
     42 H          -0.3219    3.2713    0.2150 H       1  UNL1        0.0000
     43 H          -2.9711   -3.4333   -0.1535 H       1  UNL1        0.0000
     44 H           4.7477   -2.1025   -0.4649 H       1  UNL1        0.0000
     45 H           7.1980   -2.0943   -0.3785 H       1  UNL1        0.0000
     46 H           8.4385    0.0268   -0.0396 H       1  UNL1        0.0000
     47 H           7.1899    2.1572    0.2158 H       1  UNL1        0.0000
     48 H           4.7281    2.1697    0.1481 H       1  UNL1        0.0000
@<TRIPOS>BOND
     1     1     2    1
     2     2     3    2
     3     3     4   ar
     4     4     5   ar
     5     5     6   ar
     6     6     7   ar
     7     7     8   ar
     8     8     9   ar
     9     9    10   ar
    10    10    11   ar
    11    11    12   ar
    12    12    13   ar
    13    13    14   ar
    14    14    15   ar
    15    15    16   ar
    16    16    17   ar
    17    17    18   ar
    18    18    19    2
    19    19    20    1
    20    20    21    1
    21    21    22    2
    22    11    23   ar
    23    23    24    2
    24     6    25    1
    25    25    26   ar
    26    26    27   ar
    27    27    28   ar
    28    28    29   ar
    29    29    30   ar
    30    24     1    1
    31    30    25   ar
    32    23     3   ar
    33     9     4   ar
    34    22    10   ar
    35    17    12   ar
    36    22    18   ar
    37     1    31    1
    38     1    32    1
    39     2    33    1
    40     5    34    1
    41     8    35    1
    42    13    36    1
    43    15    37    1
    44    16    38    1
    45    19    39    1
    46    20    40    1
    47    20    41    1
    48    21    42    1
    49    24    43    1
    50    26    44    1
    51    27    45    1
    52    28    46    1
    53    29    47    1
    54    30    48    1
