@<TRIPOS>MOLECULE
*****
 46 52 0 0 0
SMALL
GASTEIGER

@<TRIPOS>ATOM
      1 C          -0.7094    1.8927   -3.6210 C.3     1  UNL1        0.0000
      2 C           0.4962    1.5407   -2.8154 C.2     1  UNL1        0.0000
      3 C           0.1175    0.9290   -1.6816 C.ar    1  UNL1        0.0000
      4 C           0.9661    0.3653   -0.6249 C.ar    1  UNL1        0.0000
      5 C           2.3495    0.5801   -0.5785 C.ar    1  UNL1        0.0000
      6 C           3.0723    0.1852    0.5423 C.ar    1  UNL1        0.0000
      7 N           2.4558   -0.3940    1.6017 N.ar    1  UNL1        0.0000
      8 C           1.1226   -0.6366    1.5042 C.ar    1  UNL1        0.0000
      9 C           0.3202   -0.3425    0.4053 C.ar    1  UNL1        0.0000
     10 C          -1.1358   -0.6113    0.3486 C.ar    1  UNL1        0.0000
     11 C          -1.8282   -1.5936    1.0968 C.ar    1  UNL1        0.0000
     12 C          -1.3165   -2.6572    1.8096 C.ar    1  UNL1        0.0000
     13 N          -2.3772   -3.3717    2.3270 N.ar    1  UNL1        0.0000
     14 C          -3.5680   -2.8001    1.9401 C.ar    1  UNL1        0.0000
     15 C          -3.2546   -1.7197    1.1535 C.ar    1  UNL1        0.0000
     16 C          -4.1340   -0.8719    0.4936 C.ar    1  UNL1        0.0000
     17 C          -5.5911   -0.8817    0.5498 C.2     1  UNL1        0.0000
     18 C          -6.1417    0.1179   -0.1672 C.2     1  UNL1        0.0000
     19 SI         -4.8596    1.1864   -1.0398 Si      1  UNL1        0.0000
     20 C          -3.4683    0.0815   -0.3496 C.ar    1  UNL1        0.0000
     21 C          -2.0386    0.1402   -0.5155 C.ar    1  UNL1        0.0000
     22 C          -1.3471    0.8609   -1.6189 C.ar    1  UNL1        0.0000
     23 C          -1.8251    1.3643   -2.7708 C.2     1  UNL1        0.0000
     24 C           4.5299    0.4235    0.6580 C.ar    1  UNL1        0.0000
     25 C           5.1908    0.3995    1.8890 C.ar    1  UNL1        0.0000
     26 C           6.5571    0.6686    1.9353 C.ar    1  UNL1        0.0000
     27 C           7.2404    0.9357    0.7541 C.ar    1  UNL1        0.0000
     28 C           6.5248    0.9293   -0.4266 C.ar    1  UNL1        0.0000
     29 N           5.1980    0.6877   -0.5012 N.ar    1  UNL1        0.0000
     30 H          -0.6886    1.3997   -4.5944 H       1  UNL1        0.0000
     31 H          -0.7974    2.9723   -3.7568 H       1  UNL1        0.0000
     32 H           1.5063    1.7309   -3.1431 H       1  UNL1        0.0000
     33 H           2.8637    1.0886   -1.3864 H       1  UNL1        0.0000
     34 H           0.7042   -1.0561    2.4140 H       1  UNL1        0.0000
     35 H          -0.3098   -3.0168    1.9752 H       1  UNL1        0.0000
     36 H          -2.2905   -4.2191    2.8704 H       1  UNL1        0.0000
     37 H          -4.5114   -3.2369    2.2371 H       1  UNL1        0.0000
     38 H          -6.1462   -1.6255    1.1074 H       1  UNL1        0.0000
     39 H          -7.1959    0.3157   -0.2848 H       1  UNL1        0.0000
     40 H          -4.8328    2.5569   -0.4604 H       1  UNL1        0.0000
     41 H          -5.0362    1.1217   -2.5166 H       1  UNL1        0.0000
     42 H          -2.8405    1.3711   -3.1220 H       1  UNL1        0.0000
     43 H           4.6345    0.2160    2.8093 H       1  UNL1        0.0000
     44 H           7.0790    0.6919    2.8886 H       1  UNL1        0.0000
     45 H           8.3024    1.1521    0.7559 H       1  UNL1        0.0000
     46 H           7.0131    1.1292   -1.3771 H       1  UNL1        0.0000
@<TRIPOS>BOND
     1     1     2    1
     2     2     3    2
     3     3     4   ar
     4     4     5   ar
     5     5     6   ar
     6     6     7   ar
     7     7     8   ar
     8     8     9   ar
     9     9    10   ar
    10    10    11   ar
    11    11    12   ar
    12    12    13   ar
    13    13    14   ar
    14    14    15   ar
    15    15    16   ar
    16    16    17    1
    17    17    18    2
    18    18    19    1
    19    19    20    1
    20    20    21   ar
    21    21    22   ar
    22    22    23    2
    23     6    24    1
    24    24    25   ar
    25    25    26   ar
    26    26    27   ar
    27    27    28   ar
    28    28    29   ar
    29    23     1    1
    30    29    24   ar
    31    22     3   ar
    32     9     4   ar
    33    21    10   ar
    34    15    11   ar
    35    20    16   ar
    36     1    30    1
    37     1    31    1
    38     2    32    1
    39     5    33    1
    40     8    34    1
    41    12    35    1
    42    13    36    1
    43    14    37    1
    44    17    38    1
    45    18    39    1
    46    19    40    1
    47    19    41    1
    48    23    42    1
    49    25    43    1
    50    26    44    1
    51    27    45    1
    52    28    46    1
