@<TRIPOS>MOLECULE
*****
 41 47 0 0 0
SMALL
GASTEIGER

@<TRIPOS>ATOM
      1 C          -0.7399   -3.5299   -1.0219 C.3     1  UNL1       -0.0148
      2 C           0.5111   -2.7530   -0.7760 C.2     1  UNL1       -0.0719
      3 C           0.2034   -1.5090   -0.3681 C.ar    1  UNL1       -0.0133
      4 C           1.1138   -0.4167   -0.0172 C.ar    1  UNL1       -0.0062
      5 C           2.5087   -0.5834   -0.0799 C.ar    1  UNL1       -0.0243
      6 C           3.3556    0.4658    0.2574 C.ar    1  UNL1        0.1085
      7 N           2.8388    1.6540    0.6483 N.ar    1  UNL1       -0.2512
      8 C           1.4860    1.7913    0.7011 C.ar    1  UNL1        0.0367
      9 C           0.5445    0.8094    0.3863 C.ar    1  UNL1        0.0107
     10 C          -0.9464    0.9892    0.4538 C.ar    1  UNL1        0.0221
     11 C          -1.5663    2.2155    0.8574 C.ar    1  UNL1        0.1089
     12 N          -0.9590    3.3574    1.2258 N.ar    1  UNL1       -0.1901
     13 S          -2.1159    4.4707    1.5958 S.2     1  UNL1        0.1165
     14 N          -3.4715    3.5762    1.3126 N.ar    1  UNL1       -0.1901
     15 C          -3.0643    2.3564    0.9125 C.ar    1  UNL1        0.1096
     16 C          -3.9214    1.2732    0.5646 C.ar    1  UNL1        0.0292
     17 C          -5.3260    1.4179    0.6205 C.ar    1  UNL1       -0.0490
     18 C          -6.1342    0.3517    0.2778 C.ar    1  UNL1       -0.0429
     19 C          -5.5065   -0.8098   -0.1047 C.ar    1  UNL1        0.0283
     20 N          -4.1605   -0.9589   -0.1616 N.ar    1  UNL1       -0.2543
     21 C          -3.3247    0.0561    0.1641 C.ar    1  UNL1        0.0814
     22 C          -1.8878   -0.0694    0.1143 C.ar    1  UNL1        0.0183
     23 C          -1.2476   -1.3545   -0.3088 C.ar    1  UNL1       -0.0114
     24 C          -1.7952   -2.5255   -0.6877 C.2     1  UNL1       -0.0719
     25 C           4.8358    0.3384    0.2071 C.ar    1  UNL1        0.1812
     26 N           5.3481   -0.8410   -0.1805 N.ar    1  UNL1       -0.2145
     27 C           6.6779   -0.8902   -0.2045 C.ar    1  UNL1        0.1201
     28 N           7.5069    0.0991    0.1131 N.ar    1  UNL1       -0.2241
     29 C           6.8906    1.2184    0.4817 C.ar    1  UNL1        0.1201
     30 N           5.5769    1.4012    0.5491 N.ar    1  UNL1       -0.2145
     31 H          -0.8113   -3.8473   -2.0662 H       1  UNL1        0.0350
     32 H          -0.8009   -4.4024   -0.3651 H       1  UNL1        0.0350
     33 H           1.4951   -3.1709   -0.9184 H       1  UNL1        0.0581
     34 H           2.9402   -1.5291   -0.3910 H       1  UNL1        0.0646
     35 H           1.2137    2.7874    1.0279 H       1  UNL1        0.0836
     36 H          -5.7774    2.3582    0.9298 H       1  UNL1        0.0625
     37 H          -7.2146    0.4249    0.3084 H       1  UNL1        0.0633
     38 H          -6.0781   -1.6894   -0.3879 H       1  UNL1        0.0830
     39 H          -2.8437   -2.7656   -0.7598 H       1  UNL1        0.0581
     40 H           7.1291   -1.8274   -0.5127 H       1  UNL1        0.1048
     41 H           7.5172    2.0612    0.7527 H       1  UNL1        0.1048
@<TRIPOS>BOND
     1     1     2    1
     2     2     3    2
     3     3     4   ar
     4     4     5   ar
     5     5     6   ar
     6     6     7   ar
     7     7     8   ar
     8     8     9   ar
     9     9    10   ar
    10    10    11   ar
    11    11    12   ar
    12    12    13   ar
    13    13    14   ar
    14    14    15   ar
    15    15    16   ar
    16    16    17   ar
    17    17    18   ar
    18    18    19   ar
    19    19    20   ar
    20    20    21   ar
    21    21    22   ar
    22    22    23   ar
    23    23    24    2
    24     6    25    1
    25    25    26   ar
    26    26    27   ar
    27    27    28   ar
    28    28    29   ar
    29    29    30   ar
    30    24     1    1
    31    30    25   ar
    32    23     3   ar
    33     9     4   ar
    34    22    10   ar
    35    15    11   ar
    36    21    16   ar
    37     1    31    1
    38     1    32    1
    39     2    33    1
    40     5    34    1
    41     8    35    1
    42    17    36    1
    43    18    37    1
    44    19    38    1
    45    24    39    1
    46    27    40    1
    47    29    41    1
