@<TRIPOS>MOLECULE
*****
 43 50 0 0 0
SMALL
GASTEIGER

@<TRIPOS>ATOM
      1 C          -2.3739   -2.3501    2.9792 C.3     1  UNL1       -0.0148
      2 C          -1.0126   -1.9216    2.5480 C.2     1  UNL1       -0.0719
      3 C          -1.1038   -1.1404    1.4574 C.ar    1  UNL1       -0.0133
      4 C          -0.0149   -0.5034    0.7065 C.ar    1  UNL1       -0.0063
      5 C           1.3278   -0.6678    1.0920 C.ar    1  UNL1       -0.0269
      6 C           2.3322   -0.0533    0.3622 C.ar    1  UNL1        0.0788
      7 N           2.0444    0.7020   -0.7148 N.ar    1  UNL1       -0.2538
      8 C           0.7394    0.8470   -1.0691 C.ar    1  UNL1        0.0366
      9 C          -0.3576    0.2810   -0.4169 C.ar    1  UNL1        0.0107
     10 C          -1.7902    0.4573   -0.8299 C.ar    1  UNL1        0.0211
     11 C          -2.1885    1.2405   -1.9569 C.ar    1  UNL1        0.1088
     12 N          -1.3971    1.9281   -2.8095 N.ar    1  UNL1       -0.1901
     13 S          -2.3582    2.6702   -3.9475 S.2     1  UNL1        0.1165
     14 N          -3.8584    2.1639   -3.4297 N.ar    1  UNL1       -0.1901
     15 C          -3.5672    1.4207   -2.3704 C.ar    1  UNL1        0.1087
     16 C          -4.5945    0.7817   -1.6130 C.ar    1  UNL1        0.0180
     17 C          -5.9653    0.8944   -1.9333 C.ar    1  UNL1       -0.0448
     18 C          -6.7148    0.1773   -1.0351 C.ar    1  UNL1       -0.0231
     19 S          -5.7442   -0.5899    0.1391 S.2     1  UNL1       -0.0960
     20 C          -4.2435    0.0143   -0.5128 C.ar    1  UNL1        0.0298
     21 C          -2.8810   -0.1623   -0.1052 C.ar    1  UNL1        0.0066
     22 C          -2.5090   -0.9844    1.0749 C.ar    1  UNL1       -0.0123
     23 C          -3.2444   -1.6862    1.9583 C.2     1  UNL1       -0.0719
     24 C           3.7638   -0.1543    0.6708 C.ar    1  UNL1        0.0467
     25 S           4.3779   -1.0853    2.0226 S.2     1  UNL1       -0.0924
     26 C           6.0389   -0.7083    1.7019 C.ar    1  UNL1        0.0002
     27 C           6.0754    0.0856    0.6155 C.ar    1  UNL1        0.0542
     28 N           7.1864    0.6122    0.0240 N.ar    1  UNL1       -0.3602
     29 C           6.6194    1.3286   -1.0275 C.ar    1  UNL1        0.0028
     30 C           5.2129    1.2119   -1.0342 C.ar    1  UNL1       -0.0355
     31 C           4.8508    0.3827    0.0621 C.ar    1  UNL1        0.0159
     32 H          -2.6027   -1.9919    3.9871 H       1  UNL1        0.0350
     33 H          -2.4789   -3.4382    2.9409 H       1  UNL1        0.0350
     34 H          -0.1156   -2.2200    3.0673 H       1  UNL1        0.0581
     35 H           1.5767   -1.2716    1.9552 H       1  UNL1        0.0645
     36 H           0.6443    1.4743   -1.9469 H       1  UNL1        0.0836
     37 H          -6.3872    1.4562   -2.7585 H       1  UNL1        0.0630
     38 H          -7.7904    0.0656   -1.0106 H       1  UNL1        0.0694
     39 H          -4.3119   -1.8068    1.9993 H       1  UNL1        0.0581
     40 H           6.8502   -1.0812    2.3106 H       1  UNL1        0.0714
     41 H           8.1543    0.4970    0.2972 H       1  UNL1        0.1653
     42 H           7.2669    1.8749   -1.7012 H       1  UNL1        0.0807
     43 H           4.5442    1.6744   -1.7489 H       1  UNL1        0.0639
@<TRIPOS>BOND
     1     1     2    1
     2     2     3    2
     3     3     4   ar
     4     4     5   ar
     5     5     6   ar
     6     6     7   ar
     7     7     8   ar
     8     8     9   ar
     9     9    10   ar
    10    10    11   ar
    11    11    12   ar
    12    12    13   ar
    13    13    14   ar
    14    14    15   ar
    15    15    16   ar
    16    16    17   ar
    17    17    18   ar
    18    18    19   ar
    19    19    20   ar
    20    20    21   ar
    21    21    22   ar
    22    22    23    2
    23     6    24    1
    24    24    25   ar
    25    25    26   ar
    26    26    27   ar
    27    27    28   ar
    28    28    29   ar
    29    29    30   ar
    30    30    31   ar
    31    23     1    1
    32    31    24   ar
    33    22     3   ar
    34    31    27   ar
    35     9     4   ar
    36    21    10   ar
    37    15    11   ar
    38    20    16   ar
    39     1    32    1
    40     1    33    1
    41     2    34    1
    42     5    35    1
    43     8    36    1
    44    17    37    1
    45    18    38    1
    46    23    39    1
    47    26    40    1
    48    28    41    1
    49    29    42    1
    50    30    43    1
