@<TRIPOS>MOLECULE
*****
 43 49 0 0 0
SMALL
GASTEIGER

@<TRIPOS>ATOM
      1 C          -1.4261   -3.3844   -0.5146 C.3     1  UNL1       -0.0148
      2 C          -0.2145   -2.5061   -0.4537 C.2     1  UNL1       -0.0719
      3 C          -0.5865   -1.2344   -0.2310 C.ar    1  UNL1       -0.0133
      4 C           0.2449   -0.0295   -0.0949 C.ar    1  UNL1       -0.0049
      5 C           1.6429   -0.0599   -0.1884 C.ar    1  UNL1       -0.0268
      6 C           2.3636    1.1196   -0.0495 C.ar    1  UNL1        0.0788
      7 N           1.7463    2.3018    0.1748 N.ar    1  UNL1       -0.2537
      8 C           0.3921    2.3103    0.2621 C.ar    1  UNL1        0.0380
      9 C          -0.4227    1.1898    0.1383 C.ar    1  UNL1        0.0268
     10 C          -1.9025    1.2687    0.2444 C.ar    1  UNL1        0.0810
     11 N          -2.4044    2.5237    0.4729 N.ar    1  UNL1       -0.2537
     12 C          -3.7440    2.6644    0.5797 C.ar    1  UNL1        0.0357
     13 C          -4.6026    1.5983    0.4668 C.ar    1  UNL1       -0.0031
     14 C          -6.0498    1.5497    0.5507 C.2     1  UNL1       -0.0565
     15 C          -6.4163    0.2720    0.3736 C.2     1  UNL1       -0.0791
     16 C          -5.2371   -0.6450    0.1554 C.3     1  UNL1       -0.0079
     17 C          -4.0894    0.3161    0.2335 C.ar    1  UNL1       -0.0253
     18 C          -2.7193    0.1161    0.1155 C.ar    1  UNL1        0.0125
     19 C          -2.0444   -1.1674   -0.1282 C.ar    1  UNL1       -0.0117
     20 C          -2.5410   -2.4059   -0.2908 C.2     1  UNL1       -0.0719
     21 C           3.8311    1.1650   -0.1357 C.ar    1  UNL1        0.0467
     22 S           4.6931    2.6862    0.0499 S.2     1  UNL1       -0.0924
     23 C           6.2567    1.9803   -0.1614 C.ar    1  UNL1        0.0002
     24 C           6.0871    0.6601   -0.3593 C.ar    1  UNL1        0.0542
     25 N           7.0767   -0.2556   -0.5672 N.ar    1  UNL1       -0.3602
     26 C           6.3375   -1.4255   -0.7051 C.ar    1  UNL1        0.0028
     27 C           4.9536   -1.1803   -0.5782 C.ar    1  UNL1       -0.0355
     28 C           4.7811    0.2163   -0.3463 C.ar    1  UNL1        0.0159
     29 H          -1.4038   -4.1438    0.2725 H       1  UNL1        0.0350
     30 H          -1.5154   -3.8674   -1.4920 H       1  UNL1        0.0350
     31 H           0.7911   -2.8768   -0.5754 H       1  UNL1        0.0581
     32 H           2.1537   -0.9949   -0.3671 H       1  UNL1        0.0645
     33 H          -0.0318    3.2959    0.4434 H       1  UNL1        0.0836
     34 H          -4.0987    3.6732    0.7603 H       1  UNL1        0.0836
     35 H          -6.6903    2.3994    0.7243 H       1  UNL1        0.0621
     36 H          -7.4390   -0.0786    0.3832 H       1  UNL1        0.0575
     37 H          -5.3017   -1.1155   -0.8299 H       1  UNL1        0.0356
     38 H          -5.1893   -1.3945    0.9504 H       1  UNL1        0.0356
     39 H          -3.5747   -2.7071   -0.2725 H       1  UNL1        0.0581
     40 H           7.1666    2.5622   -0.1274 H       1  UNL1        0.0714
     41 H           8.0760   -0.0951   -0.6055 H       1  UNL1        0.1653
     42 H           6.8584   -2.3572   -0.8857 H       1  UNL1        0.0807
     43 H           4.1928   -1.9444   -0.6508 H       1  UNL1        0.0639
@<TRIPOS>BOND
     1     1     2    1
     2     2     3    2
     3     3     4   ar
     4     4     5   ar
     5     5     6   ar
     6     6     7   ar
     7     7     8   ar
     8     8     9   ar
     9     9    10   ar
    10    10    11   ar
    11    11    12   ar
    12    12    13   ar
    13    13    14    1
    14    14    15    2
    15    15    16    1
    16    16    17    1
    17    17    18   ar
    18    18    19   ar
    19    19    20    2
    20     6    21    1
    21    21    22   ar
    22    22    23   ar
    23    23    24   ar
    24    24    25   ar
    25    25    26   ar
    26    26    27   ar
    27    27    28   ar
    28    20     1    1
    29    28    21   ar
    30    19     3   ar
    31    28    24   ar
    32     9     4   ar
    33    18    10   ar
    34    17    13   ar
    35     1    29    1
    36     1    30    1
    37     2    31    1
    38     5    32    1
    39     8    33    1
    40    12    34    1
    41    14    35    1
    42    15    36    1
    43    16    37    1
    44    16    38    1
    45    20    39    1
    46    23    40    1
    47    25    41    1
    48    26    42    1
    49    27    43    1
