@<TRIPOS>MOLECULE
*****
 46 53 0 0 0
SMALL
GASTEIGER

@<TRIPOS>ATOM
      1 SI         -2.1076   -3.5747   -1.7960 Si      1  UNL1        0.0000
      2 C          -3.1168   -2.1130   -1.2427 C.2     1  UNL1        0.0000
      3 C          -2.3402   -1.1160   -0.7680 C.ar    1  UNL1        0.0000
      4 C          -2.8308    0.1667   -0.2576 C.ar    1  UNL1        0.0000
      5 C          -1.9235    1.0639    0.1906 C.ar    1  UNL1        0.0000
      6 C          -0.4626    0.8085    0.2053 C.ar    1  UNL1        0.0000
      7 C           0.3792    1.8152    0.7075 C.ar    1  UNL1        0.0000
      8 C           1.7480    1.5557    0.7094 C.ar    1  UNL1        0.0000
      9 O           2.7059    2.4263    1.1626 O.2     1  UNL1        0.0000
     10 C           3.9166    1.8099    0.9980 C.ar    1  UNL1        0.0000
     11 C           5.1839    2.3400    1.3306 C.ar    1  UNL1        0.0000
     12 C           6.3492    1.5733    1.0976 C.ar    1  UNL1        0.0000
     13 C           6.0724    0.3279    0.5396 C.ar    1  UNL1        0.0000
     14 C           7.0074   -0.6235    0.2081 C.ar    1  UNL1        0.0000
     15 N           6.3293   -1.7139   -0.3165 N.ar    1  UNL1        0.0000
     16 C           4.9668   -1.4770   -0.3273 C.ar    1  UNL1        0.0000
     17 C           4.8283   -0.2286    0.1976 C.ar    1  UNL1        0.0000
     18 C           3.6808    0.5673    0.4447 C.ar    1  UNL1        0.0000
     19 C           2.3150    0.3673    0.2458 C.ar    1  UNL1        0.0000
     20 C           1.4647   -0.6350   -0.2547 C.ar    1  UNL1        0.0000
     21 C           0.0731   -0.4140   -0.2748 C.ar    1  UNL1        0.0000
     22 C          -0.8870   -1.4211   -0.7837 C.ar    1  UNL1        0.0000
     23 C          -0.5755   -2.6381   -1.2787 C.2     1  UNL1        0.0000
     24 C          -4.2507    0.5532   -0.2328 C.ar    1  UNL1        0.0000
     25 N          -4.9668    0.5776   -1.4046 N.ar    1  UNL1        0.0000
     26 C          -6.2902    0.9267   -1.4214 C.ar    1  UNL1        0.0000
     27 C          -7.0812    1.2833   -0.3347 C.ar    1  UNL1        0.0000
     28 C          -6.3909    1.2648    0.8916 C.ar    1  UNL1        0.0000
     29 N          -6.9257    1.5640    2.0862 N.ar    1  UNL1        0.0000
     30 S          -5.7119    1.3856    3.2038 S.2     1  UNL1        0.0000
     31 N          -4.4543    0.9298    2.2248 N.ar    1  UNL1        0.0000
     32 C          -4.9326    0.8914    0.9664 C.ar    1  UNL1        0.0000
     33 H          -2.1636   -3.7973   -3.2611 H       1  UNL1        0.0000
     34 H          -2.3370   -4.7792   -0.9618 H       1  UNL1        0.0000
     35 H          -4.1916   -2.1182   -1.3313 H       1  UNL1        0.0000
     36 H          -2.2400    2.0350    0.5631 H       1  UNL1        0.0000
     37 H           0.0005    2.7586    1.0823 H       1  UNL1        0.0000
     38 H           5.2555    3.3330    1.7631 H       1  UNL1        0.0000
     39 H           7.3405    1.9356    1.3352 H       1  UNL1        0.0000
     40 H           8.0858   -0.6419    0.2894 H       1  UNL1        0.0000
     41 H           6.7713   -2.5628   -0.6448 H       1  UNL1        0.0000
     42 H           4.2726   -2.2149   -0.7019 H       1  UNL1        0.0000
     43 H           1.8923   -1.5617   -0.6168 H       1  UNL1        0.0000
     44 H           0.3969   -3.0861   -1.3927 H       1  UNL1        0.0000
     45 H          -6.7302    0.9087   -2.4187 H       1  UNL1        0.0000
     46 H          -8.1252    1.5477   -0.4207 H       1  UNL1        0.0000
@<TRIPOS>BOND
     1     1     2    1
     2     2     3    2
     3     3     4   ar
     4     4     5   ar
     5     5     6   ar
     6     6     7   ar
     7     7     8   ar
     8     8     9   ar
     9     9    10   ar
    10    10    11   ar
    11    11    12   ar
    12    12    13   ar
    13    13    14   ar
    14    14    15   ar
    15    15    16   ar
    16    16    17   ar
    17    17    18   ar
    18    18    19   ar
    19    19    20   ar
    20    20    21   ar
    21    21    22   ar
    22    22    23    2
    23     4    24    1
    24    24    25   ar
    25    25    26   ar
    26    26    27   ar
    27    27    28   ar
    28    28    29   ar
    29    29    30   ar
    30    30    31   ar
    31    31    32   ar
    32    23     1    1
    33    32    24   ar
    34    22     3   ar
    35    32    28   ar
    36    21     6   ar
    37    19     8   ar
    38    18    10   ar
    39    17    13   ar
    40     1    33    1
    41     1    34    1
    42     2    35    1
    43     5    36    1
    44     7    37    1
    45    11    38    1
    46    12    39    1
    47    14    40    1
    48    15    41    1
    49    16    42    1
    50    20    43    1
    51    23    44    1
    52    26    45    1
    53    27    46    1
