@<TRIPOS>MOLECULE
*****
 45 51 0 0 0
SMALL
GASTEIGER

@<TRIPOS>ATOM
      1 C           0.0647   -3.5845   -3.4260 C.3     1  UNL1       -0.0148
      2 C           0.9711   -3.1140   -2.3254 C.2     1  UNL1       -0.0718
      3 C           0.4274   -2.0424   -1.7362 C.ar    1  UNL1       -0.0104
      4 C           0.8755   -1.2365   -0.6637 C.ar    1  UNL1        0.0288
      5 C           2.0066   -1.2211    0.1696 C.ar    1  UNL1       -0.0075
      6 C           1.8301   -0.1486    1.0334 C.ar    1  UNL1        0.1369
      7 O           0.6504    0.4992    0.7486 O.2     1  UNL1       -0.4542
      8 C           0.0818   -0.1805   -0.2764 C.ar    1  UNL1        0.1440
      9 C          -1.1995    0.2212   -0.8455 C.ar    1  UNL1        0.0262
     10 C          -1.9313    1.3125   -0.3739 C.ar    1  UNL1       -0.0428
     11 C          -3.1589    1.6493   -0.9640 C.ar    1  UNL1       -0.0172
     12 C          -3.9080    2.7431   -0.5024 C.ar    1  UNL1       -0.0540
     13 C          -5.1283    3.0733   -1.0935 C.ar    1  UNL1       -0.0612
     14 C          -5.6156    2.3147   -2.1532 C.ar    1  UNL1       -0.0612
     15 C          -4.8840    1.2234   -2.6249 C.ar    1  UNL1       -0.0540
     16 C          -3.6543    0.8756   -2.0430 C.ar    1  UNL1       -0.0173
     17 C          -2.9131   -0.2235   -2.5136 C.ar    1  UNL1       -0.0456
     18 C          -1.6896   -0.5628   -1.9283 C.ar    1  UNL1       -0.0063
     19 C          -0.8574   -1.7136   -2.3778 C.ar    1  UNL1       -0.0133
     20 C          -1.0757   -2.6046   -3.3604 C.2     1  UNL1       -0.0719
     21 C           2.6026    0.4316    2.1102 C.ar    1  UNL1        0.0255
     22 C           2.7031    1.8309    2.3221 C.ar    1  UNL1       -0.0505
     23 C           3.4850    2.4354    3.3581 C.ar    1  UNL1       -0.0605
     24 C           4.2451    1.7059    4.2946 C.ar    1  UNL1       -0.0535
     25 C           4.1342    0.3293    4.0974 C.ar    1  UNL1       -0.0102
     26 C           4.7756   -0.5757    4.9064 C.ar    1  UNL1       -0.0166
     27 S           4.4211   -2.1886    4.4377 S.2     1  UNL1       -0.1039
     28 C           3.4017   -1.6696    3.1522 C.ar    1  UNL1       -0.0159
     29 C           3.3493   -0.2976    3.0546 C.ar    1  UNL1       -0.0002
     30 H           0.5670   -3.5373   -4.3967 H       1  UNL1        0.0350
     31 H          -0.2836   -4.6047   -3.2399 H       1  UNL1        0.0350
     32 H           1.9094   -3.5776   -2.0641 H       1  UNL1        0.0581
     33 H           2.8558   -1.8880    0.1448 H       1  UNL1        0.0662
     34 H          -1.5424    1.8987    0.4557 H       1  UNL1        0.0631
     35 H          -3.5446    3.3484    0.3253 H       1  UNL1        0.0624
     36 H          -5.6973    3.9230   -0.7250 H       1  UNL1        0.0618
     37 H          -6.5660    2.5711   -2.6140 H       1  UNL1        0.0618
     38 H          -5.2841    0.6440   -3.4541 H       1  UNL1        0.0624
     39 H          -3.3001   -0.8121   -3.3407 H       1  UNL1        0.0630
     40 H          -1.9283   -2.6400   -4.0202 H       1  UNL1        0.0581
     41 H           2.1593    2.4966    1.6493 H       1  UNL1        0.0625
     42 H           3.4910    3.5242    3.4219 H       1  UNL1        0.0618
     43 H           4.8285    2.1816    5.0718 H       1  UNL1        0.0624
     44 H           5.4250   -0.3902    5.7509 H       1  UNL1        0.0699
     45 H           2.9006   -2.4195    2.5581 H       1  UNL1        0.0700
@<TRIPOS>BOND
     1     1     2    1
     2     2     3    2
     3     3     4   ar
     4     4     5   ar
     5     5     6   ar
     6     6     7   ar
     7     7     8   ar
     8     8     9   ar
     9     9    10   ar
    10    10    11   ar
    11    11    12   ar
    12    12    13   ar
    13    13    14   ar
    14    14    15   ar
    15    15    16   ar
    16    16    17   ar
    17    17    18   ar
    18    18    19   ar
    19    19    20    2
    20     6    21    1
    21    21    22   ar
    22    22    23   ar
    23    23    24   ar
    24    24    25   ar
    25    25    26   ar
    26    26    27   ar
    27    27    28   ar
    28    28    29   ar
    29    20     1    1
    30    29    21   ar
    31    19     3   ar
    32    29    25   ar
    33     8     4   ar
    34    18     9   ar
    35    16    11   ar
    36     1    30    1
    37     1    31    1
    38     2    32    1
    39     5    33    1
    40    10    34    1
    41    12    35    1
    42    13    36    1
    43    14    37    1
    44    15    38    1
    45    17    39    1
    46    20    40    1
    47    22    41    1
    48    23    42    1
    49    24    43    1
    50    26    44    1
    51    28    45    1
