@<TRIPOS>MOLECULE
*****
 47 54 0 0 0
SMALL
GASTEIGER

@<TRIPOS>ATOM
      1 C          -0.8581   -3.4374    2.4296 C.3     1  UNL1       -0.0148
      2 C           0.4254   -2.8128    1.9833 C.2     1  UNL1       -0.0719
      3 C           0.1486   -1.7328    1.2415 C.ar    1  UNL1       -0.0129
      4 C           0.9976   -0.7533    0.6740 C.ar    1  UNL1       -0.0022
      5 C           2.4153   -0.7565    0.6052 C.ar    1  UNL1       -0.0381
      6 C           2.8967    0.3467   -0.0677 C.ar    1  UNL1        0.0282
      7 S           1.6148    1.3440   -0.6062 S.2     1  UNL1       -0.0870
      8 C           0.3937    0.3666    0.1106 C.ar    1  UNL1        0.0288
      9 C          -1.0469    0.6272    0.0233 C.ar    1  UNL1        0.0050
     10 C          -1.8863   -0.4269    0.3383 C.ar    1  UNL1       -0.0011
     11 C          -3.3553   -0.3652   -0.0566 C.ar    1  UNL1       -0.0090
     12 C          -4.1243   -1.5354   -0.1997 C.ar    1  UNL1       -0.0534
     13 C          -5.4797   -1.4917   -0.5431 C.ar    1  UNL1       -0.0611
     14 C          -6.0949   -0.2728   -0.7916 C.ar    1  UNL1       -0.0611
     15 C          -5.3436    0.8977   -0.7394 C.ar    1  UNL1       -0.0534
     16 C          -3.9803    0.8561   -0.4021 C.ar    1  UNL1       -0.0099
     17 C          -3.1251    2.0372   -0.4837 C.ar    1  UNL1       -0.0135
     18 C          -3.4551    3.3182   -0.7166 C.2     1  UNL1       -0.0719
     19 C          -2.2198    4.1582   -0.7115 C.3     1  UNL1       -0.0148
     20 C          -1.1527    3.1450   -0.4294 C.2     1  UNL1       -0.0719
     21 C          -1.6802    1.9110   -0.3199 C.ar    1  UNL1       -0.0124
     22 C          -1.2952   -1.5644    1.0876 C.ar    1  UNL1       -0.0129
     23 C          -1.8864   -2.5270    1.8212 C.2     1  UNL1       -0.0719
     24 C           4.2689    0.6684   -0.3436 C.ar    1  UNL1        0.0402
     25 S           4.9582    2.2281   -0.0514 S.2     1  UNL1       -0.0944
     26 C           6.5212    1.7540   -0.5938 C.ar    1  UNL1       -0.0155
     27 C           6.4546    0.4581   -0.9688 C.ar    1  UNL1       -0.0032
     28 C           7.4107   -0.4437   -1.4932 C.ar    1  UNL1       -0.0465
     29 C           6.8687   -1.7087   -1.7451 C.ar    1  UNL1       -0.0231
     30 S           5.1629   -1.9149   -1.3729 S.2     1  UNL1       -0.0955
     31 C           5.2206   -0.1828   -0.8461 C.ar    1  UNL1        0.0346
     32 H          -0.9589   -4.4581    2.0495 H       1  UNL1        0.0350
     33 H          -0.9347   -3.4402    3.5209 H       1  UNL1        0.0350
     34 H           1.4059   -3.1585    2.2703 H       1  UNL1        0.0581
     35 H           3.0505   -1.5308    1.0169 H       1  UNL1        0.0635
     36 H          -3.6762   -2.5172   -0.0809 H       1  UNL1        0.0624
     37 H          -6.0461   -2.4155   -0.6306 H       1  UNL1        0.0618
     38 H          -7.1463   -0.2352   -1.0634 H       1  UNL1        0.0618
     39 H          -5.8266    1.8366   -0.9943 H       1  UNL1        0.0624
     40 H          -4.4446    3.7140   -0.8806 H       1  UNL1        0.0581
     41 H          -2.2615    4.9161    0.0762 H       1  UNL1        0.0350
     42 H          -2.0616    4.6405   -1.6804 H       1  UNL1        0.0350
     43 H          -0.1238    3.4340   -0.2979 H       1  UNL1        0.0581
     44 H          -2.9422   -2.6454    2.0070 H       1  UNL1        0.0581
     45 H           7.3532    2.4438   -0.6009 H       1  UNL1        0.0700
     46 H           8.4493   -0.2071   -1.6901 H       1  UNL1        0.0629
     47 H           7.3899   -2.5671   -2.1468 H       1  UNL1        0.0694
@<TRIPOS>BOND
     1     1     2    1
     2     2     3    2
     3     3     4   ar
     4     4     5   ar
     5     5     6   ar
     6     6     7   ar
     7     7     8   ar
     8     8     9   ar
     9     9    10   ar
    10    10    11   ar
    11    11    12   ar
    12    12    13   ar
    13    13    14   ar
    14    14    15   ar
    15    15    16   ar
    16    16    17   ar
    17    17    18    2
    18    18    19    1
    19    19    20    1
    20    20    21    2
    21    10    22   ar
    22    22    23    2
    23     6    24    1
    24    24    25   ar
    25    25    26   ar
    26    26    27   ar
    27    27    28   ar
    28    28    29   ar
    29    29    30   ar
    30    30    31   ar
    31    23     1    1
    32    31    24   ar
    33    22     3   ar
    34    31    27   ar
    35     8     4   ar
    36    21     9   ar
    37    16    11   ar
    38    21    17   ar
    39     1    32    1
    40     1    33    1
    41     2    34    1
    42     5    35    1
    43    12    36    1
    44    13    37    1
    45    14    38    1
    46    15    39    1
    47    18    40    1
    48    19    41    1
    49    19    42    1
    50    20    43    1
    51    23    44    1
    52    26    45    1
    53    28    46    1
    54    29    47    1
