@<TRIPOS>MOLECULE
*****
 48 55 0 0 0
SMALL
GASTEIGER

@<TRIPOS>ATOM
      1 C          -0.9759   -4.2316   -1.0461 C.3     1  UNL1       -0.0148
      2 C           0.2824   -3.4231   -1.0269 C.2     1  UNL1       -0.0719
      3 C          -0.0074   -2.1650   -0.6684 C.ar    1  UNL1       -0.0129
      4 C           0.8222   -1.0190   -0.5924 C.ar    1  UNL1       -0.0022
      5 C           2.2404   -0.9598   -0.6413 C.ar    1  UNL1       -0.0380
      6 C           2.7039    0.3194   -0.4129 C.ar    1  UNL1        0.0291
      7 S           1.4140    1.4022   -0.1183 S.2     1  UNL1       -0.0870
      8 C           0.2132    0.2187   -0.4329 C.ar    1  UNL1        0.0288
      9 C          -1.2720    0.4429   -0.3234 C.ar    1  UNL1        0.0054
     10 C          -1.9222    1.7043   -0.4519 C.ar    1  UNL1       -0.0085
     11 C          -1.3255    2.8341   -1.0754 C.ar    1  UNL1       -0.0534
     12 C          -1.9557    4.0731   -1.1750 C.ar    1  UNL1       -0.0611
     13 C          -3.2282    4.2233   -0.6697 C.ar    1  UNL1       -0.0611
     14 C          -3.8679    3.1246   -0.0979 C.ar    1  UNL1       -0.0534
     15 C          -3.2612    1.8423    0.0115 C.ar    1  UNL1       -0.0095
     16 C          -3.9513    0.7120    0.5715 C.ar    1  UNL1       -0.0067
     17 C          -5.2473    0.7960    1.1415 C.ar    1  UNL1       -0.0353
     18 C          -5.8661   -0.3215    1.6762 C.ar    1  UNL1        0.0282
     19 N          -5.2953   -1.5291    1.7083 N.ar    1  UNL1       -0.2626
     20 C          -4.0595   -1.6117    1.1642 C.ar    1  UNL1        0.0359
     21 C          -3.3414   -0.5640    0.5522 C.ar    1  UNL1        0.0091
     22 C          -2.0511   -0.7163   -0.0159 C.ar    1  UNL1        0.0004
     23 C          -1.4343   -2.0334   -0.3725 C.ar    1  UNL1       -0.0128
     24 C          -2.0119   -3.2191   -0.6482 C.2     1  UNL1       -0.0719
     25 C           4.0694    0.7453   -0.3571 C.ar    1  UNL1        0.0498
     26 S           4.7227    2.0491   -1.3009 S.2     1  UNL1       -0.0934
     27 C           6.3346    1.8381   -0.6819 C.ar    1  UNL1       -0.0145
     28 C           6.3007    0.8179    0.1986 C.ar    1  UNL1        0.0073
     29 C           7.1412    0.0889    1.0743 C.ar    1  UNL1       -0.0361
     30 C           6.3338   -0.8770    1.7126 C.ar    1  UNL1        0.0028
     31 N           5.0085   -0.8022    1.2877 N.ar    1  UNL1       -0.3597
     32 C           5.0729    0.2214    0.3837 C.ar    1  UNL1        0.0619
     33 H          -0.9324   -5.0564   -0.3292 H       1  UNL1        0.0350
     34 H          -1.1756   -4.6225   -2.0481 H       1  UNL1        0.0350
     35 H           1.2508   -3.8002   -1.3165 H       1  UNL1        0.0581
     36 H           2.8911   -1.8089   -0.8106 H       1  UNL1        0.0635
     37 H          -0.3534    2.7570   -1.5542 H       1  UNL1        0.0624
     38 H          -1.4506    4.9052   -1.6579 H       1  UNL1        0.0618
     39 H          -3.7377    5.1805   -0.7373 H       1  UNL1        0.0618
     40 H          -4.8817    3.2992    0.2507 H       1  UNL1        0.0624
     41 H          -5.7967    1.7283    1.1933 H       1  UNL1        0.0639
     42 H          -6.8584   -0.2589    2.1132 H       1  UNL1        0.0830
     43 H          -3.6242   -2.5980    1.2910 H       1  UNL1        0.0836
     44 H          -3.0659   -3.4505   -0.6486 H       1  UNL1        0.0581
     45 H           7.1518    2.4674   -1.0026 H       1  UNL1        0.0700
     46 H           8.2002    0.2301    1.2454 H       1  UNL1        0.0639
     47 H           6.6039   -1.6185    2.4537 H       1  UNL1        0.0807
     48 H           4.1929   -1.3345    1.5667 H       1  UNL1        0.1654
@<TRIPOS>BOND
     1     1     2    1
     2     2     3    2
     3     3     4   ar
     4     4     5   ar
     5     5     6   ar
     6     6     7   ar
     7     7     8   ar
     8     8     9   ar
     9     9    10   ar
    10    10    11   ar
    11    11    12   ar
    12    12    13   ar
    13    13    14   ar
    14    14    15   ar
    15    15    16   ar
    16    16    17   ar
    17    17    18   ar
    18    18    19   ar
    19    19    20   ar
    20    20    21   ar
    21    21    22   ar
    22    22    23   ar
    23    23    24    2
    24     6    25    1
    25    25    26   ar
    26    26    27   ar
    27    27    28   ar
    28    28    29   ar
    29    29    30   ar
    30    30    31   ar
    31    31    32   ar
    32    24     1    1
    33    32    25   ar
    34    23     3   ar
    35    32    28   ar
    36     8     4   ar
    37    22     9   ar
    38    15    10   ar
    39    21    16   ar
    40     1    33    1
    41     1    34    1
    42     2    35    1
    43     5    36    1
    44    11    37    1
    45    12    38    1
    46    13    39    1
    47    14    40    1
    48    17    41    1
    49    18    42    1
    50    20    43    1
    51    24    44    1
    52    27    45    1
    53    29    46    1
    54    30    47    1
    55    31    48    1
