@<TRIPOS>MOLECULE
*****
 40 46 0 0 0
SMALL
GASTEIGER

@<TRIPOS>ATOM
      1 C          -2.5066    3.2577    0.1455 C.3     1  UNL1       -0.0148
      2 C          -1.0383    2.9939    0.2045 C.2     1  UNL1       -0.0719
      3 C          -0.8172    1.6752    0.1089 C.ar    1  UNL1       -0.0129
      4 C           0.4155    0.9620    0.1129 C.ar    1  UNL1       -0.0021
      5 C           1.7309    1.4908    0.2279 C.ar    1  UNL1       -0.0386
      6 C           2.6974    0.5028    0.1864 C.ar    1  UNL1        0.0220
      7 S           1.9770   -1.0444    0.0248 S.2     1  UNL1       -0.0875
      8 C           0.3901   -0.4196   -0.0083 C.ar    1  UNL1        0.0304
      9 C          -0.8511   -1.2174   -0.1415 C.ar    1  UNL1        0.0272
     10 C          -0.8766   -2.6373   -0.2693 C.ar    1  UNL1        0.1094
     11 N           0.1608   -3.5035   -0.2995 N.ar    1  UNL1       -0.1901
     12 S          -0.4562   -5.0441   -0.4646 S.2     1  UNL1        0.1165
     13 N          -2.0930   -4.7098   -0.5096 N.ar    1  UNL1       -0.1901
     14 C          -2.1150   -3.3903   -0.3934 C.ar    1  UNL1        0.1096
     15 C          -3.3350   -2.6537   -0.3828 C.ar    1  UNL1        0.0284
     16 C          -4.6303   -3.1667   -0.4855 C.ar    1  UNL1       -0.0345
     17 C          -5.4483   -2.0624   -0.4225 C.ar    1  UNL1        0.0028
     18 N          -4.6580   -0.9411   -0.2877 N.ar    1  UNL1       -0.3601
     19 C          -3.3157   -1.2743   -0.2606 C.ar    1  UNL1        0.0571
     20 C          -2.1200   -0.5266   -0.1428 C.ar    1  UNL1        0.0167
     21 C          -2.0948    0.9544   -0.0184 C.ar    1  UNL1       -0.0114
     22 C          -3.0776    1.8746    0.0009 C.2     1  UNL1       -0.0719
     23 C           4.1546    0.6426    0.2884 C.ar    1  UNL1        0.0068
     24 C           4.7254    1.5599    1.1781 C.ar    1  UNL1       -0.0507
     25 C           6.1113    1.6920    1.2559 C.ar    1  UNL1       -0.0430
     26 C           6.8945    0.9016    0.4326 C.ar    1  UNL1        0.0276
     27 N           6.3914    0.0089   -0.4442 N.ar    1  UNL1       -0.2626
     28 C           5.0391   -0.0997   -0.4939 C.ar    1  UNL1        0.0357
     29 H          -2.7629    3.8804   -0.7167 H       1  UNL1        0.0350
     30 H          -2.8609    3.7350    1.0637 H       1  UNL1        0.0350
     31 H          -0.2883    3.7629    0.3051 H       1  UNL1        0.0581
     32 H           1.9650    2.5436    0.3257 H       1  UNL1        0.0635
     33 H          -4.9402   -4.1986   -0.5906 H       1  UNL1        0.0639
     34 H          -6.5260   -1.9712   -0.4606 H       1  UNL1        0.0807
     35 H          -5.0300   -0.0081   -0.2163 H       1  UNL1        0.1654
     36 H          -4.1382    1.7273   -0.0740 H       1  UNL1        0.0581
     37 H           4.0992    2.1672    1.8264 H       1  UNL1        0.0625
     38 H           6.5678    2.3931    1.9455 H       1  UNL1        0.0633
     39 H           7.9784    0.9670    0.4572 H       1  UNL1        0.0829
     40 H           4.6818   -0.8241   -1.2217 H       1  UNL1        0.0836
@<TRIPOS>BOND
     1     1     2    1
     2     2     3    2
     3     3     4   ar
     4     4     5   ar
     5     5     6   ar
     6     6     7   ar
     7     7     8   ar
     8     8     9   ar
     9     9    10   ar
    10    10    11   ar
    11    11    12   ar
    12    12    13   ar
    13    13    14   ar
    14    14    15   ar
    15    15    16   ar
    16    16    17   ar
    17    17    18   ar
    18    18    19   ar
    19    19    20   ar
    20    20    21   ar
    21    21    22    2
    22     6    23    1
    23    23    24   ar
    24    24    25   ar
    25    25    26   ar
    26    26    27   ar
    27    27    28   ar
    28    22     1    1
    29    28    23   ar
    30    21     3   ar
    31     8     4   ar
    32    20     9   ar
    33    14    10   ar
    34    19    15   ar
    35     1    29    1
    36     1    30    1
    37     2    31    1
    38     5    32    1
    39    16    33    1
    40    17    34    1
    41    18    35    1
    42    22    36    1
    43    24    37    1
    44    25    38    1
    45    26    39    1
    46    28    40    1
