@<TRIPOS>MOLECULE
*****
 45 52 0 0 0
SMALL
GASTEIGER

@<TRIPOS>ATOM
      1 C          -1.4415   -3.6956    0.3175 C.3     1  UNL1       -0.0148
      2 C          -0.0312   -3.2183    0.1682 C.2     1  UNL1       -0.0719
      3 C          -0.0117   -1.8788    0.2163 C.ar    1  UNL1       -0.0129
      4 C           1.0921   -0.9899    0.3214 C.ar    1  UNL1       -0.0022
      5 C           2.4789   -1.2738    0.2016 C.ar    1  UNL1       -0.0385
      6 C           3.2528   -0.1463    0.4016 C.ar    1  UNL1        0.0241
      7 S           2.2842    1.2210    0.7664 S.2     1  UNL1       -0.0875
      8 C           0.8304    0.3352    0.6274 C.ar    1  UNL1        0.0282
      9 C          -0.5289    0.9195    0.7714 C.ar    1  UNL1       -0.0024
     10 C          -0.7315    2.2427    1.1776 C.ar    1  UNL1       -0.0523
     11 C          -2.0157    2.7895    1.2372 C.ar    1  UNL1       -0.0534
     12 C          -3.1385    2.0824    0.8026 C.ar    1  UNL1       -0.0166
     13 C          -4.4146    2.7656    0.8292 C.ar    1  UNL1       -0.0533
     14 C          -5.6331    2.2498    0.3427 C.ar    1  UNL1       -0.0504
     15 C          -5.4137    1.0084   -0.2183 C.ar    1  UNL1        0.0205
     16 C          -6.3406    0.2688   -0.9015 C.ar    1  UNL1        0.0994
     17 O          -5.7373   -0.8402   -1.4184 O.2     1  UNL1       -0.4698
     18 C          -4.4209   -0.7967   -1.0503 C.ar    1  UNL1        0.1000
     19 C          -4.1801    0.2880   -0.2418 C.ar    1  UNL1        0.0281
     20 C          -2.9462    0.7301    0.3305 C.ar    1  UNL1        0.0011
     21 C          -1.6571    0.1055    0.4502 C.ar    1  UNL1       -0.0010
     22 C          -1.3787   -1.3540    0.3256 C.ar    1  UNL1       -0.0129
     23 C          -2.1999   -2.4096    0.4746 C.2     1  UNL1       -0.0719
     24 C           4.7011   -0.0320    0.3912 C.ar    1  UNL1        0.0350
     25 C           5.5402   -0.7785    1.2250 C.ar    1  UNL1        0.0380
     26 N           6.9131   -0.7497    1.2760 N.ar    1  UNL1       -0.2604
     27 C           7.6222    0.0742    0.4498 C.ar    1  UNL1        0.0557
     28 C           6.9087    0.8820   -0.4586 C.ar    1  UNL1        0.1185
     29 N           7.4353    1.7398   -1.3476 N.ar    1  UNL1       -0.1892
     30 S           6.1554    2.4102   -2.1644 S.2     1  UNL1        0.1165
     31 N           4.8833    1.6418   -1.4311 N.ar    1  UNL1       -0.1900
     32 C           5.4007    0.8262   -0.4936 C.ar    1  UNL1        0.1110
     33 H          -1.7740   -4.2482   -0.5658 H       1  UNL1        0.0350
     34 H          -1.5490   -4.3225    1.2077 H       1  UNL1        0.0350
     35 H           0.8276   -3.8701    0.1345 H       1  UNL1        0.0581
     36 H           2.8918   -2.2489   -0.0263 H       1  UNL1        0.0635
     37 H           0.1037    2.8757    1.4671 H       1  UNL1        0.0624
     38 H          -2.1134    3.8170    1.5859 H       1  UNL1        0.0624
     39 H          -4.4476    3.7784    1.2388 H       1  UNL1        0.0624
     40 H          -6.5647    2.7962    0.3541 H       1  UNL1        0.0625
     41 H          -7.3870    0.3879   -1.1442 H       1  UNL1        0.1035
     42 H          -3.8167   -1.5881   -1.4681 H       1  UNL1        0.1036
     43 H          -3.2518   -2.3833    0.7120 H       1  UNL1        0.0581
     44 H           5.1028   -1.4747    1.9418 H       1  UNL1        0.0836
     45 H           8.7012    0.0636    0.5284 H       1  UNL1        0.0852
@<TRIPOS>BOND
     1     1     2    1
     2     2     3    2
     3     3     4   ar
     4     4     5   ar
     5     5     6   ar
     6     6     7   ar
     7     7     8   ar
     8     8     9   ar
     9     9    10   ar
    10    10    11   ar
    11    11    12   ar
    12    12    13   ar
    13    13    14   ar
    14    14    15   ar
    15    15    16   ar
    16    16    17   ar
    17    17    18   ar
    18    18    19   ar
    19    19    20   ar
    20    20    21   ar
    21    21    22   ar
    22    22    23    2
    23     6    24    1
    24    24    25   ar
    25    25    26   ar
    26    26    27   ar
    27    27    28   ar
    28    28    29   ar
    29    29    30   ar
    30    30    31   ar
    31    31    32   ar
    32    23     1    1
    33    32    24   ar
    34    22     3   ar
    35    32    28   ar
    36     8     4   ar
    37    21     9   ar
    38    20    12   ar
    39    19    15   ar
    40     1    33    1
    41     1    34    1
    42     2    35    1
    43     5    36    1
    44    10    37    1
    45    11    38    1
    46    13    39    1
    47    14    40    1
    48    16    41    1
    49    18    42    1
    50    23    43    1
    51    25    44    1
    52    27    45    1
