@<TRIPOS>MOLECULE
*****
 44 51 0 0 0
SMALL
GASTEIGER

@<TRIPOS>ATOM
      1 C           1.0872    1.2362   -3.3642 C.3     1  UNL1       -0.0148
      2 C          -0.2443    0.8015   -2.8371 C.2     1  UNL1       -0.0719
      3 C          -0.1040    0.3885   -1.5698 C.ar    1  UNL1       -0.0129
      4 C          -1.0956    0.0789   -0.5993 C.ar    1  UNL1       -0.0022
      5 C          -2.4970   -0.0722   -0.7694 C.ar    1  UNL1       -0.0385
      6 C          -3.1459   -0.3323    0.4259 C.ar    1  UNL1        0.0241
      7 S          -2.0236   -0.3751    1.7307 S.2     1  UNL1       -0.0875
      8 C          -0.6911   -0.0585    0.7162 C.ar    1  UNL1        0.0297
      9 C           0.7151    0.0137    1.1730 C.ar    1  UNL1        0.0157
     10 C           1.0884   -0.0150    2.5062 C.ar    1  UNL1        0.0371
     11 N           2.3674    0.0043    2.9474 N.ar    1  UNL1       -0.2543
     12 C           3.3615   -0.0594    2.0577 C.ar    1  UNL1        0.0722
     13 C           4.6630   -0.0998    2.6186 C.ar    1  UNL1       -0.0351
     14 C           5.8731   -0.2489    1.9112 C.ar    1  UNL1       -0.0515
     15 C           5.6316   -0.4299    0.5592 C.ar    1  UNL1       -0.0102
     16 C           6.6496   -0.7141   -0.3174 C.ar    1  UNL1       -0.0166
     17 S           6.0380   -1.0357   -1.8857 S.2     1  UNL1       -0.1039
     18 C           4.4144   -0.8027   -1.3700 C.ar    1  UNL1       -0.0160
     19 C           4.3297   -0.3773   -0.0633 C.ar    1  UNL1       -0.0011
     20 C           3.1065   -0.1002    0.6451 C.ar    1  UNL1        0.0169
     21 C           1.7536    0.0919    0.2088 C.ar    1  UNL1        0.0018
     22 C           1.3095    0.4421   -1.1713 C.ar    1  UNL1       -0.0128
     23 C           1.9875    1.0159   -2.1823 C.2     1  UNL1       -0.0719
     24 C          -4.5688   -0.5436    0.6807 C.ar    1  UNL1        0.0350
     25 C          -5.0946   -1.4646    1.5982 C.ar    1  UNL1        0.0380
     26 N          -6.4167   -1.7166    1.8817 N.ar    1  UNL1       -0.2604
     27 C          -7.4072   -1.0338    1.2400 C.ar    1  UNL1        0.0557
     28 C          -7.0359   -0.0711    0.2815 C.ar    1  UNL1        0.1185
     29 N          -7.8695    0.6910   -0.4447 N.ar    1  UNL1       -0.1892
     30 S          -6.9136    1.6498   -1.4020 S.2     1  UNL1        0.1165
     31 N          -5.4056    1.1347   -0.9470 N.ar    1  UNL1       -0.1900
     32 C          -5.5753    0.1821   -0.0097 C.ar    1  UNL1        0.1110
     33 H           1.3979    0.6292   -4.2192 H       1  UNL1        0.0350
     34 H           1.0686    2.2926   -3.6479 H       1  UNL1        0.0350
     35 H          -1.1741    0.9126   -3.3732 H       1  UNL1        0.0581
     36 H          -3.0105    0.0082   -1.7203 H       1  UNL1        0.0635
     37 H           0.3556   -0.0399    3.3078 H       1  UNL1        0.0836
     38 H           4.7309   -0.0240    3.7064 H       1  UNL1        0.0639
     39 H           6.8376   -0.2875    2.3990 H       1  UNL1        0.0624
     40 H           7.7113   -0.7902   -0.1252 H       1  UNL1        0.0699
     41 H           3.6259   -1.0111   -2.0770 H       1  UNL1        0.0700
     42 H           3.0218    1.3230   -2.1771 H       1  UNL1        0.0581
     43 H          -4.4202   -2.0946    2.1798 H       1  UNL1        0.0836
     44 H          -8.4320   -1.2655    1.4981 H       1  UNL1        0.0852
@<TRIPOS>BOND
     1     1     2    1
     2     2     3    2
     3     3     4   ar
     4     4     5   ar
     5     5     6   ar
     6     6     7   ar
     7     7     8   ar
     8     8     9   ar
     9     9    10   ar
    10    10    11   ar
    11    11    12   ar
    12    12    13   ar
    13    13    14   ar
    14    14    15   ar
    15    15    16   ar
    16    16    17   ar
    17    17    18   ar
    18    18    19   ar
    19    19    20   ar
    20    20    21   ar
    21    21    22   ar
    22    22    23    2
    23     6    24    1
    24    24    25   ar
    25    25    26   ar
    26    26    27   ar
    27    27    28   ar
    28    28    29   ar
    29    29    30   ar
    30    30    31   ar
    31    31    32   ar
    32    23     1    1
    33    32    24   ar
    34    22     3   ar
    35    32    28   ar
    36     8     4   ar
    37    21     9   ar
    38    20    12   ar
    39    19    15   ar
    40     1    33    1
    41     1    34    1
    42     2    35    1
    43     5    36    1
    44    10    37    1
    45    13    38    1
    46    14    39    1
    47    16    40    1
    48    18    41    1
    49    23    42    1
    50    25    43    1
    51    27    44    1
