@<TRIPOS>MOLECULE
*****
 40 46 0 0 0
SMALL
GASTEIGER

@<TRIPOS>ATOM
      1 C          -1.8518    3.4359   -0.1735 C.3     1  UNL1       -0.0148
      2 C          -3.1511    2.6960   -0.0485 C.2     1  UNL1       -0.0719
      3 C          -2.9095    1.3794   -0.0099 C.ar    1  UNL1       -0.0119
      4 C          -3.7968    0.2740    0.1010 C.ar    1  UNL1        0.0077
      5 C          -5.1979    0.1763    0.2060 C.ar    1  UNL1       -0.0361
      6 C          -5.4959   -1.1705    0.2847 C.ar    1  UNL1        0.0028
      7 N          -4.3194   -1.8809    0.2303 N.ar    1  UNL1       -0.3601
      8 C          -3.2693   -1.0078    0.1176 C.ar    1  UNL1        0.0571
      9 C          -1.8444   -1.3231    0.0284 C.ar    1  UNL1        0.0383
     10 C          -1.3364   -2.6478    0.0482 C.ar    1  UNL1        0.1104
     11 N          -2.0300   -3.8048    0.1475 N.ar    1  UNL1       -0.1901
     12 S          -0.9052   -5.0497    0.1194 S.2     1  UNL1        0.1165
     13 N           0.5227   -4.1813   -0.0206 N.ar    1  UNL1       -0.1900
     14 C           0.0905   -2.9309   -0.0427 C.ar    1  UNL1        0.1113
     15 C           0.9660   -1.8133   -0.1535 C.ar    1  UNL1        0.0495
     16 C           2.3546   -1.7711   -0.2556 C.ar    1  UNL1       -0.0062
     17 C           2.6847   -0.4172   -0.3373 C.ar    1  UNL1        0.1327
     18 O           1.5055    0.3142   -0.2831 O.2     1  UNL1       -0.4544
     19 C           0.4460   -0.5436   -0.1700 C.ar    1  UNL1        0.1462
     20 C          -0.9170   -0.2381   -0.0846 C.ar    1  UNL1        0.0366
     21 C          -1.4588    1.1366   -0.1041 C.ar    1  UNL1       -0.0098
     22 C          -0.8388    2.3251   -0.1992 C.2     1  UNL1       -0.0718
     23 C           3.9466    0.2255   -0.4561 C.2     1  UNL1       -0.0014
     24 C           5.1157   -0.4384   -0.5132 C.2     1  UNL1       -0.0551
     25 C           6.2076    0.4950   -0.6320 C.2     1  UNL1       -0.0650
     26 C           5.7255    1.7444   -0.6496 C.2     1  UNL1       -0.0796
     27 C           4.2286    1.7086   -0.5391 C.3     1  UNL1       -0.0057
     28 H          -1.6898    4.0950    0.6845 H       1  UNL1        0.0350
     29 H          -1.8182    4.0192   -1.0983 H       1  UNL1        0.0350
     30 H          -4.1212    3.1647    0.0015 H       1  UNL1        0.0581
     31 H          -5.9164    0.9847    0.2232 H       1  UNL1        0.0639
     32 H          -6.4425   -1.6859    0.3747 H       1  UNL1        0.0807
     33 H          -4.2284   -2.8900    0.2667 H       1  UNL1        0.1654
     34 H           3.0454   -2.6024   -0.2702 H       1  UNL1        0.0662
     35 H           0.2242    2.4904   -0.2828 H       1  UNL1        0.0581
     36 H           5.2650   -1.5072   -0.4791 H       1  UNL1        0.0621
     37 H           7.2469    0.2094   -0.6957 H       1  UNL1        0.0615
     38 H           6.3125    2.6466   -0.7304 H       1  UNL1        0.0575
     39 H           3.8904    2.2293    0.3623 H       1  UNL1        0.0357
     40 H           3.7605    2.1541   -1.4225 H       1  UNL1        0.0357
@<TRIPOS>BOND
     1     1     2    1
     2     2     3    2
     3     3     4   ar
     4     4     5   ar
     5     5     6   ar
     6     6     7   ar
     7     7     8   ar
     8     8     9   ar
     9     9    10   ar
    10    10    11   ar
    11    11    12   ar
    12    12    13   ar
    13    13    14   ar
    14    14    15   ar
    15    15    16   ar
    16    16    17   ar
    17    17    18   ar
    18    18    19   ar
    19    19    20   ar
    20    20    21   ar
    21    21    22    2
    22    17    23    1
    23    23    24    2
    24    24    25    1
    25    25    26    2
    26    26    27    1
    27    22     1    1
    28    27    23    1
    29    21     3   ar
    30     8     4   ar
    31    20     9   ar
    32    14    10   ar
    33    19    15   ar
    34     1    28    1
    35     1    29    1
    36     2    30    1
    37     5    31    1
    38     6    32    1
    39     7    33    1
    40    16    34    1
    41    22    35    1
    42    24    36    1
    43    25    37    1
    44    26    38    1
    45    27    39    1
    46    27    40    1
