@<TRIPOS>MOLECULE
*****
 39 44 0 0 0
SMALL
GASTEIGER

@<TRIPOS>ATOM
      1 C          -4.0200   -3.1168    0.7009 C.3     1  UNL1        0.0000
      2 C          -4.7196   -1.8222    0.4109 C.2     1  UNL1        0.0000
      3 C          -3.8072   -0.8708    0.1745 C.ar    1  UNL1        0.0000
      4 C          -3.9570    0.5025   -0.1429 C.ar    1  UNL1        0.0000
      5 C          -5.0913    1.3190   -0.3145 C.ar    1  UNL1        0.0000
      6 C          -4.6236    2.5813   -0.6161 C.ar    1  UNL1        0.0000
      7 N          -3.2485    2.5426   -0.6296 N.ar    1  UNL1        0.0000
      8 C          -2.8194    1.2714   -0.3405 C.ar    1  UNL1        0.0000
      9 C          -1.4323    0.7798   -0.2487 C.ar    1  UNL1        0.0000
     10 C          -0.3272    1.6134   -0.4608 C.ar    1  UNL1        0.0000
     11 C           0.9494    1.0675   -0.3545 C.ar    1  UNL1        0.0000
     12 SI          2.6188    1.8985   -0.5752 Si      1  UNL1        0.0000
     13 C           3.4438    0.2582   -0.2065 C.2     1  UNL1        0.0000
     14 C           2.5514   -0.7243    0.0368 C.2     1  UNL1        0.0000
     15 C           1.1428   -0.2980   -0.0396 C.ar    1  UNL1        0.0000
     16 C           0.0523   -1.1340    0.1728 C.ar    1  UNL1        0.0000
     17 C          -1.2429   -0.6070    0.0712 C.ar    1  UNL1        0.0000
     18 C          -2.4573   -1.4353    0.2839 C.ar    1  UNL1        0.0000
     19 C          -2.5684   -2.7402    0.5896 C.2     1  UNL1        0.0000
     20 C           4.8466    0.0515   -0.1810 C.ar    1  UNL1        0.0000
     21 C           5.9091    0.9266   -0.4031 C.ar    1  UNL1        0.0000
     22 C           7.1197    0.2073   -0.2545 C.ar    1  UNL1        0.0000
     23 C           6.7542   -1.0758    0.0516 C.ar    1  UNL1        0.0000
     24 O           5.4066   -1.1828    0.0986 O.2     1  UNL1        0.0000
     25 H          -4.2564   -3.4756    1.7070 H       1  UNL1        0.0000
     26 H          -4.2848   -3.8813   -0.0353 H       1  UNL1        0.0000
     27 H          -5.7900   -1.6920    0.3981 H       1  UNL1        0.0000
     28 H          -6.1305    1.0311   -0.2305 H       1  UNL1        0.0000
     29 H          -5.1487    3.5041   -0.8224 H       1  UNL1        0.0000
     30 H          -2.6511    3.3335   -0.8235 H       1  UNL1        0.0000
     31 H          -0.4522    2.6629   -0.7032 H       1  UNL1        0.0000
     32 H           2.8362    2.3674   -1.9687 H       1  UNL1        0.0000
     33 H           2.8756    2.9332    0.4604 H       1  UNL1        0.0000
     34 H           2.8103   -1.7494    0.2714 H       1  UNL1        0.0000
     35 H           0.2129   -2.1794    0.4137 H       1  UNL1        0.0000
     36 H          -1.7603   -3.4386    0.7390 H       1  UNL1        0.0000
     37 H           5.8278    1.9766   -0.6475 H       1  UNL1        0.0000
     38 H           8.1287    0.5799   -0.3581 H       1  UNL1        0.0000
     39 H           7.3025   -1.9848    0.2554 H       1  UNL1        0.0000
@<TRIPOS>BOND
     1     1     2    1
     2     2     3    2
     3     3     4   ar
     4     4     5   ar
     5     5     6   ar
     6     6     7   ar
     7     7     8   ar
     8     8     9   ar
     9     9    10   ar
    10    10    11   ar
    11    11    12    1
    12    12    13    1
    13    13    14    2
    14    14    15    1
    15    15    16   ar
    16    16    17   ar
    17    17    18   ar
    18    18    19    2
    19    13    20    1
    20    20    21   ar
    21    21    22   ar
    22    22    23   ar
    23    23    24   ar
    24    19     1    1
    25    24    20   ar
    26    18     3   ar
    27     8     4   ar
    28    17     9   ar
    29    15    11   ar
    30     1    25    1
    31     1    26    1
    32     2    27    1
    33     5    28    1
    34     6    29    1
    35     7    30    1
    36    10    31    1
    37    12    32    1
    38    12    33    1
    39    14    34    1
    40    16    35    1
    41    19    36    1
    42    21    37    1
    43    22    38    1
    44    23    39    1
