@<TRIPOS>MOLECULE
*****
 42 48 0 0 0
SMALL
GASTEIGER

@<TRIPOS>ATOM
      1 C          -4.5541   -3.2658    0.2984 C.3     1  UNL1        0.0000
      2 C          -5.3249   -2.0354   -0.0775 C.2     1  UNL1        0.0000
      3 C          -4.4804   -1.0019   -0.1857 C.ar    1  UNL1        0.0000
      4 C          -4.7093    0.3579   -0.5134 C.ar    1  UNL1        0.0000
      5 C          -5.8774    1.0763   -0.8316 C.ar    1  UNL1        0.0000
      6 C          -5.4859    2.3794   -1.0598 C.ar    1  UNL1        0.0000
      7 N          -4.1231    2.4602   -0.8875 N.ar    1  UNL1        0.0000
      8 C          -3.6273    1.2253   -0.5516 C.ar    1  UNL1        0.0000
      9 C          -2.2276    0.8516   -0.2762 C.ar    1  UNL1        0.0000
     10 C          -1.1831    1.7818   -0.3339 C.ar    1  UNL1        0.0000
     11 C           0.1302    1.3490   -0.0587 C.ar    1  UNL1        0.0000
     12 S           1.5557    2.3158   -0.0712 S.2     1  UNL1        0.0000
     13 C           2.5571    1.0003    0.3517 C.ar    1  UNL1        0.0000
     14 C           1.8243   -0.1579    0.5008 C.ar    1  UNL1        0.0000
     15 C           0.4190    0.0240    0.2685 C.ar    1  UNL1        0.0000
     16 C          -0.6470   -0.9069    0.3251 C.ar    1  UNL1        0.0000
     17 C          -1.9622   -0.5028    0.0553 C.ar    1  UNL1        0.0000
     18 C          -3.1105   -1.4435    0.1009 C.ar    1  UNL1        0.0000
     19 C          -3.1407   -2.7579    0.3837 C.2     1  UNL1        0.0000
     20 C           3.9800    1.1423    0.4943 C.ar    1  UNL1        0.0000
     21 S           4.6833    2.2981    1.5763 S.2     1  UNL1        0.0000
     22 C           6.2995    1.8240    1.1917 C.ar    1  UNL1        0.0000
     23 C           6.2983    0.8164    0.2662 C.ar    1  UNL1        0.0000
     24 C           7.3836    0.1173   -0.3509 C.2     1  UNL1        0.0000
     25 C           7.0147   -0.8267   -1.2443 C.2     1  UNL1        0.0000
     26 SI          5.1088   -0.9263   -1.4048 Si      1  UNL1        0.0000
     27 C           4.9814    0.4426   -0.1153 C.ar    1  UNL1        0.0000
     28 H          -4.8879   -3.6608    1.2624 H       1  UNL1        0.0000
     29 H          -4.6474   -4.0392   -0.4696 H       1  UNL1        0.0000
     30 H          -6.3916   -2.0018   -0.2324 H       1  UNL1        0.0000
     31 H          -6.8894    0.6989   -0.8901 H       1  UNL1        0.0000
     32 H          -6.0574    3.2573   -1.3291 H       1  UNL1        0.0000
     33 H          -3.5770    3.3036   -0.9932 H       1  UNL1        0.0000
     34 H          -1.3604    2.8217   -0.5835 H       1  UNL1        0.0000
     35 H           2.2663   -1.1074    0.7782 H       1  UNL1        0.0000
     36 H          -0.4275   -1.9388    0.5815 H       1  UNL1        0.0000
     37 H          -2.2997   -3.3831    0.6378 H       1  UNL1        0.0000
     38 H           7.1378    2.3149    1.6655 H       1  UNL1        0.0000
     39 H           8.4181    0.3372   -0.1132 H       1  UNL1        0.0000
     40 H           7.6537   -1.4708   -1.8264 H       1  UNL1        0.0000
     41 H           4.6048   -2.2403   -0.9313 H       1  UNL1        0.0000
     42 H           4.6752   -0.5285   -2.7667 H       1  UNL1        0.0000
@<TRIPOS>BOND
     1     1     2    1
     2     2     3    2
     3     3     4   ar
     4     4     5   ar
     5     5     6   ar
     6     6     7   ar
     7     7     8   ar
     8     8     9   ar
     9     9    10   ar
    10    10    11   ar
    11    11    12   ar
    12    12    13   ar
    13    13    14   ar
    14    14    15   ar
    15    15    16   ar
    16    16    17   ar
    17    17    18   ar
    18    18    19    2
    19    13    20    1
    20    20    21   ar
    21    21    22   ar
    22    22    23   ar
    23    23    24    1
    24    24    25    2
    25    25    26    1
    26    26    27    1
    27    19     1    1
    28    27    20   ar
    29    18     3   ar
    30    27    23   ar
    31     8     4   ar
    32    17     9   ar
    33    15    11   ar
    34     1    28    1
    35     1    29    1
    36     2    30    1
    37     5    31    1
    38     6    32    1
    39     7    33    1
    40    10    34    1
    41    14    35    1
    42    16    36    1
    43    19    37    1
    44    22    38    1
    45    24    39    1
    46    25    40    1
    47    26    41    1
    48    26    42    1
