@<TRIPOS>MOLECULE
*****
 37 42 0 0 0
SMALL
GASTEIGER

@<TRIPOS>ATOM
      1 C          -3.5343   -2.9371   -0.0594 C.3     1  UNL1       -0.0148
      2 C          -4.3820   -1.7044   -0.1392 C.2     1  UNL1       -0.0719
      3 C          -3.5912   -0.6236   -0.1292 C.ar    1  UNL1       -0.0120
      4 C          -3.9194    0.7590   -0.1850 C.ar    1  UNL1        0.0082
      5 C          -5.1328    1.4689   -0.2678 C.ar    1  UNL1       -0.0361
      6 C          -4.8042    2.8127   -0.2878 C.ar    1  UNL1        0.0028
      7 N          -3.4330    2.9290   -0.2194 N.ar    1  UNL1       -0.3597
      8 C          -2.8885    1.6786   -0.1569 C.ar    1  UNL1        0.0616
      9 C          -1.5067    1.2966   -0.0746 C.ar    1  UNL1        0.0449
     10 S          -0.2040    2.3657   -0.0378 S.2     1  UNL1       -0.0861
     11 C           0.9358    1.0746    0.0584 C.ar    1  UNL1        0.0211
     12 C           2.3398    1.2172    0.1276 C.ar    1  UNL1       -0.0392
     13 C           3.1556    0.0807    0.2023 C.ar    1  UNL1       -0.0102
     14 C           2.5559   -1.1765    0.1980 C.ar    1  UNL1       -0.0529
     15 C           1.1623   -1.3151    0.1306 C.ar    1  UNL1       -0.0523
     16 C           0.3122   -0.1824    0.0590 C.ar    1  UNL1       -0.0024
     17 C          -1.1224   -0.0401   -0.0176 C.ar    1  UNL1        0.0063
     18 C          -2.1718   -1.0387   -0.0437 C.ar    1  UNL1       -0.0123
     19 C          -2.1378   -2.3802   -0.0028 C.2     1  UNL1       -0.0719
     20 C           4.6190    0.1943    0.2618 C.ar    1  UNL1        0.0194
     21 C           5.5691   -0.5092   -0.4574 C.ar    1  UNL1       -0.0469
     22 C           6.9032   -0.1402   -0.1170 C.ar    1  UNL1       -0.0541
     23 C           6.9342    0.8289    0.8590 C.ar    1  UNL1       -0.0237
     24 S           5.3652    1.2864    1.3582 S.2     1  UNL1       -0.0967
     25 H          -3.6696   -3.5662   -0.9441 H       1  UNL1        0.0350
     26 H          -3.7625   -3.5144    0.8414 H       1  UNL1        0.0350
     27 H          -5.4593   -1.7018   -0.1947 H       1  UNL1        0.0581
     28 H          -6.1344    1.0625   -0.3085 H       1  UNL1        0.0639
     29 H          -5.4257    3.6962   -0.3443 H       1  UNL1        0.0807
     30 H          -2.9101    3.7948   -0.2155 H       1  UNL1        0.1654
     31 H           2.7765    2.2127    0.1115 H       1  UNL1        0.0635
     32 H           3.1649   -2.0763    0.2606 H       1  UNL1        0.0624
     33 H           0.7497   -2.3176    0.1368 H       1  UNL1        0.0624
     34 H          -1.2683   -3.0099    0.0616 H       1  UNL1        0.0581
     35 H           5.3186   -1.2519   -1.2054 H       1  UNL1        0.0629
     36 H           7.7930   -0.5647   -0.5655 H       1  UNL1        0.0623
     37 H           7.8029    1.2916    1.3067 H       1  UNL1        0.0693
@<TRIPOS>BOND
     1     1     2    1
     2     2     3    2
     3     3     4   ar
     4     4     5   ar
     5     5     6   ar
     6     6     7   ar
     7     7     8   ar
     8     8     9   ar
     9     9    10   ar
    10    10    11   ar
    11    11    12   ar
    12    12    13   ar
    13    13    14   ar
    14    14    15   ar
    15    15    16   ar
    16    16    17   ar
    17    17    18   ar
    18    18    19    2
    19    13    20    1
    20    20    21   ar
    21    21    22   ar
    22    22    23   ar
    23    23    24   ar
    24    19     1    1
    25    24    20   ar
    26    18     3   ar
    27     8     4   ar
    28    17     9   ar
    29    16    11   ar
    30     1    25    1
    31     1    26    1
    32     2    27    1
    33     5    28    1
    34     6    29    1
    35     7    30    1
    36    12    31    1
    37    14    32    1
    38    15    33    1
    39    19    34    1
    40    21    35    1
    41    22    36    1
    42    23    37    1
