@<TRIPOS>MOLECULE
*****
 44 50 0 0 0
SMALL
GASTEIGER

@<TRIPOS>ATOM
      1 SI          0.7252   -1.4015   -0.0490 Si      1  UNL1        0.0000
      2 C           1.6297    0.2343    0.1786 C.2     1  UNL1        0.0000
      3 C           0.7134    1.2324    0.2909 C.2     1  UNL1        0.0000
      4 C          -0.7229    0.8494    0.2153 C.ar    1  UNL1        0.0000
      5 C          -0.8957   -0.5387    0.0330 C.ar    1  UNL1        0.0000
      6 C          -2.1728   -1.0878   -0.0610 C.ar    1  UNL1        0.0000
      7 N          -2.5748   -2.3900   -0.2363 N.ar    1  UNL1        0.0000
      8 C          -3.9422   -2.4331   -0.2666 C.ar    1  UNL1        0.0000
      9 C          -4.9448   -3.4279   -0.4131 C.ar    1  UNL1        0.0000
     10 C          -6.1914   -2.8445   -0.3604 C.ar    1  UNL1        0.0000
     11 S          -6.1601   -1.1406   -0.1399 S.2     1  UNL1        0.0000
     12 C          -4.4214   -1.1655   -0.1117 C.ar    1  UNL1        0.0000
     13 C          -3.3062   -0.2656    0.0246 C.ar    1  UNL1        0.0000
     14 C          -3.1398    1.1465    0.2099 C.ar    1  UNL1        0.0000
     15 C          -4.2702    1.9888    0.2981 C.ar    1  UNL1        0.0000
     16 C          -4.1295    3.3642    0.4781 C.ar    1  UNL1        0.0000
     17 C          -2.8626    3.9231    0.5732 C.ar    1  UNL1        0.0000
     18 C          -1.7311    3.1082    0.4886 C.ar    1  UNL1        0.0000
     19 C          -1.8344    1.7097    0.3062 C.ar    1  UNL1        0.0000
     20 C           3.0911    0.4283    0.2301 C.ar    1  UNL1        0.0000
     21 C           3.6874    1.7208    0.4074 C.ar    1  UNL1        0.0000
     22 C           5.0963    2.0076    0.4699 C.ar    1  UNL1        0.0000
     23 C           6.0976    1.0319    0.3624 C.ar    1  UNL1        0.0000
     24 C           5.5311   -0.2202    0.1908 C.ar    1  UNL1        0.0000
     25 C           6.2623   -1.3710    0.0558 C.ar    1  UNL1        0.0000
     26 N           5.3598   -2.3921   -0.0920 N.ar    1  UNL1        0.0000
     27 C           4.0686   -1.8987   -0.0519 C.ar    1  UNL1        0.0000
     28 C           4.1235   -0.5334    0.1250 C.ar    1  UNL1        0.0000
     29 H           0.9142   -2.3514    1.0792 H       1  UNL1        0.0000
     30 H           0.9587   -2.0347   -1.3740 H       1  UNL1        0.0000
     31 H           0.9618    2.2732    0.4298 H       1  UNL1        0.0000
     32 H          -1.9915   -3.2109   -0.3317 H       1  UNL1        0.0000
     33 H          -4.7730   -4.4879   -0.5468 H       1  UNL1        0.0000
     34 H          -7.1491   -3.3404   -0.4417 H       1  UNL1        0.0000
     35 H          -5.2757    1.5866    0.2279 H       1  UNL1        0.0000
     36 H          -5.0116    3.9956    0.5435 H       1  UNL1        0.0000
     37 H          -2.7496    4.9950    0.7135 H       1  UNL1        0.0000
     38 H          -0.7605    3.5892    0.5682 H       1  UNL1        0.0000
     39 H           3.0433    2.5936    0.5081 H       1  UNL1        0.0000
     40 H           5.3977    3.0461    0.6091 H       1  UNL1        0.0000
     41 H           7.1545    1.2499    0.4096 H       1  UNL1        0.0000
     42 H           7.3268   -1.5620    0.0505 H       1  UNL1        0.0000
     43 H           5.6010   -3.3672   -0.2133 H       1  UNL1        0.0000
     44 H           3.2670   -2.6091   -0.1578 H       1  UNL1        0.0000
@<TRIPOS>BOND
     1     1     2    1
     2     2     3    2
     3     3     4    1
     4     4     5   ar
     5     5     6   ar
     6     6     7   ar
     7     7     8   ar
     8     8     9   ar
     9     9    10   ar
    10    10    11   ar
    11    11    12   ar
    12    12    13   ar
    13    13    14   ar
    14    14    15   ar
    15    15    16   ar
    16    16    17   ar
    17    17    18   ar
    18    18    19   ar
    19     2    20    1
    20    20    21   ar
    21    21    22   ar
    22    22    23   ar
    23    23    24   ar
    24    24    25   ar
    25    25    26   ar
    26    26    27   ar
    27    27    28   ar
    28     5     1    1
    29    13     6   ar
    30    19    14   ar
    31    28    20   ar
    32    19     4   ar
    33    28    24   ar
    34    12     8   ar
    35     1    29    1
    36     1    30    1
    37     3    31    1
    38     7    32    1
    39     9    33    1
    40    10    34    1
    41    15    35    1
    42    16    36    1
    43    17    37    1
    44    18    38    1
    45    21    39    1
    46    22    40    1
    47    23    41    1
    48    25    42    1
    49    26    43    1
    50    27    44    1
