@<TRIPOS>MOLECULE
*****
 47 53 0 0 0
SMALL
GASTEIGER

@<TRIPOS>ATOM
      1 SI         -2.4233   -3.9066   -0.3858 Si      1  UNL1        0.0000
      2 C          -3.4923   -2.4092   -0.0897 C.2     1  UNL1        0.0000
      3 C          -2.7579   -1.2815    0.0198 C.ar    1  UNL1        0.0000
      4 C          -3.2934    0.0602    0.2654 C.ar    1  UNL1        0.0000
      5 C          -2.4202    1.0807    0.4178 C.ar    1  UNL1        0.0000
      6 C          -0.9514    0.9154    0.3212 C.ar    1  UNL1        0.0000
      7 C          -0.1440    2.0499    0.4889 C.ar    1  UNL1        0.0000
      8 C           1.2333    1.8708    0.3787 C.ar    1  UNL1        0.0000
      9 O           2.1498    2.8622    0.5114 O.2     1  UNL1        0.0000
     10 C           3.3742    2.3016    0.3381 C.ar    1  UNL1        0.0000
     11 C           4.5696    3.0105    0.4029 C.ar    1  UNL1        0.0000
     12 C           5.7442    2.2848    0.2014 C.ar    1  UNL1        0.0000
     13 C           5.7217    0.9068   -0.0543 C.ar    1  UNL1        0.0000
     14 C           6.9197    0.2037   -0.2528 C.ar    1  UNL1        0.0000
     15 C           6.9133   -1.1683   -0.5079 C.ar    1  UNL1        0.0000
     16 C           5.7081   -1.8597   -0.5686 C.ar    1  UNL1        0.0000
     17 C           4.5023   -1.1833   -0.3747 C.ar    1  UNL1        0.0000
     18 C           4.4847    0.2042   -0.1154 C.ar    1  UNL1        0.0000
     19 C           3.2700    0.9344    0.0891 C.ar    1  UNL1        0.0000
     20 C           1.8575    0.6570    0.1168 C.ar    1  UNL1        0.0000
     21 C           1.0300   -0.4753   -0.0475 C.ar    1  UNL1        0.0000
     22 C          -0.3712   -0.3482    0.0552 C.ar    1  UNL1        0.0000
     23 C          -1.2927   -1.4996   -0.0971 C.ar    1  UNL1        0.0000
     24 C          -0.9328   -2.7827   -0.3147 C.2     1  UNL1        0.0000
     25 C          -4.7319    0.4017    0.3431 C.ar    1  UNL1        0.0000
     26 C          -5.5823    0.1532   -0.7323 C.ar    1  UNL1        0.0000
     27 C          -6.9242    0.5097   -0.6253 C.ar    1  UNL1        0.0000
     28 C          -7.3769    1.1079    0.5440 C.ar    1  UNL1        0.0000
     29 C          -6.4636    1.3311    1.5605 C.ar    1  UNL1        0.0000
     30 N          -5.1567    0.9993    1.4847 N.ar    1  UNL1        0.0000
     31 H          -2.4597   -4.8724    0.7382 H       1  UNL1        0.0000
     32 H          -2.6253   -4.4875   -1.7352 H       1  UNL1        0.0000
     33 H          -4.5629   -2.5083   -0.0089 H       1  UNL1        0.0000
     34 H          -2.7851    2.0871    0.6112 H       1  UNL1        0.0000
     35 H          -0.5549    3.0312    0.6949 H       1  UNL1        0.0000
     36 H           4.5808    4.0756    0.6012 H       1  UNL1        0.0000
     37 H           6.6927    2.8174    0.2474 H       1  UNL1        0.0000
     38 H           7.8760    0.7213   -0.2101 H       1  UNL1        0.0000
     39 H           7.8515   -1.6961   -0.6588 H       1  UNL1        0.0000
     40 H           5.7047   -2.9285   -0.7670 H       1  UNL1        0.0000
     41 H           3.5849   -1.7563   -0.4291 H       1  UNL1        0.0000
     42 H           1.4738   -1.4405   -0.2510 H       1  UNL1        0.0000
     43 H           0.0571   -3.1924   -0.4227 H       1  UNL1        0.0000
     44 H          -5.2075   -0.3034   -1.6425 H       1  UNL1        0.0000
     45 H          -7.6074    0.3251   -1.4492 H       1  UNL1        0.0000
     46 H          -8.4152    1.3978    0.6599 H       1  UNL1        0.0000
     47 H          -6.7670    1.7990    2.4927 H       1  UNL1        0.0000
@<TRIPOS>BOND
     1     1     2    1
     2     2     3    2
     3     3     4   ar
     4     4     5   ar
     5     5     6   ar
     6     6     7   ar
     7     7     8   ar
     8     8     9   ar
     9     9    10   ar
    10    10    11   ar
    11    11    12   ar
    12    12    13   ar
    13    13    14   ar
    14    14    15   ar
    15    15    16   ar
    16    16    17   ar
    17    17    18   ar
    18    18    19   ar
    19    19    20   ar
    20    20    21   ar
    21    21    22   ar
    22    22    23   ar
    23    23    24    2
    24     4    25    1
    25    25    26   ar
    26    26    27   ar
    27    27    28   ar
    28    28    29   ar
    29    29    30   ar
    30    24     1    1
    31    30    25   ar
    32    23     3   ar
    33    22     6   ar
    34    20     8   ar
    35    19    10   ar
    36    18    13   ar
    37     1    31    1
    38     1    32    1
    39     2    33    1
    40     5    34    1
    41     7    35    1
    42    11    36    1
    43    12    37    1
    44    14    38    1
    45    15    39    1
    46    16    40    1
    47    17    41    1
    48    21    42    1
    49    24    43    1
    50    26    44    1
    51    27    45    1
    52    28    46    1
    53    29    47    1
