@<TRIPOS>MOLECULE
*****
 39 44 0 0 0
SMALL
GASTEIGER

@<TRIPOS>ATOM
      1 C          -3.8969   -2.9810   -0.0785 C.3     1  UNL1       -0.0148
      2 C          -4.7588   -1.7561   -0.0286 C.2     1  UNL1       -0.0719
      3 C          -3.9787   -0.6682    0.0046 C.ar    1  UNL1       -0.0120
      4 C          -4.3206    0.7114    0.0563 C.ar    1  UNL1        0.0082
      5 C          -5.5428    1.4101    0.0901 C.ar    1  UNL1       -0.0361
      6 C          -5.2276    2.7563    0.1358 C.ar    1  UNL1        0.0028
      7 N          -3.8559    2.8854    0.1305 N.ar    1  UNL1       -0.3597
      8 C          -3.2976    1.6405    0.0820 C.ar    1  UNL1        0.0616
      9 C          -1.9105    1.2704    0.0588 C.ar    1  UNL1        0.0449
     10 S          -0.6131    2.3466    0.0878 S.2     1  UNL1       -0.0860
     11 C           0.5365    1.0609    0.0338 C.ar    1  UNL1        0.0240
     12 C           1.9350    1.2032    0.0289 C.ar    1  UNL1       -0.0213
     13 C           2.7054    0.0484   -0.0177 C.ar    1  UNL1        0.0720
     14 N           2.1210   -1.1716   -0.0571 N.ar    1  UNL1       -0.2543
     15 C           0.7725   -1.3062   -0.0523 C.ar    1  UNL1        0.0371
     16 C          -0.0787   -0.1953   -0.0066 C.ar    1  UNL1        0.0157
     17 C          -1.5143   -0.0628    0.0084 C.ar    1  UNL1        0.0078
     18 C          -2.5538   -1.0705   -0.0200 C.ar    1  UNL1       -0.0123
     19 C          -2.5038   -2.4111   -0.0682 C.2     1  UNL1       -0.0719
     20 C           4.1953    0.0452   -0.0284 C.ar    1  UNL1        0.0004
     21 C           4.9689    1.2224    0.0087 C.ar    1  UNL1       -0.0526
     22 C           6.3699    1.1862   -0.0025 C.ar    1  UNL1       -0.0611
     23 C           7.0391   -0.0312   -0.0511 C.ar    1  UNL1       -0.0617
     24 C           6.3089   -1.2122   -0.0886 C.ar    1  UNL1       -0.0611
     25 C           4.9102   -1.1706   -0.0773 C.ar    1  UNL1       -0.0526
     26 H          -4.0661   -3.6176    0.7949 H       1  UNL1        0.0350
     27 H          -4.0790   -3.5538   -0.9926 H       1  UNL1        0.0350
     28 H          -5.8375   -1.7641   -0.0211 H       1  UNL1        0.0581
     29 H          -6.5417    0.9947    0.0824 H       1  UNL1        0.0639
     30 H          -5.8594    3.6337    0.1717 H       1  UNL1        0.0807
     31 H          -3.3425    3.7565    0.1579 H       1  UNL1        0.1654
     32 H           2.3697    2.1930    0.0610 H       1  UNL1        0.0650
     33 H           0.4204   -2.3288   -0.0862 H       1  UNL1        0.0836
     34 H          -1.6274   -3.0346   -0.0968 H       1  UNL1        0.0581
     35 H           4.5037    2.2027    0.0474 H       1  UNL1        0.0624
     36 H           6.9352    2.1143    0.0271 H       1  UNL1        0.0618
     37 H           8.1251   -0.0595   -0.0598 H       1  UNL1        0.0618
     38 H           6.8199   -2.1706   -0.1268 H       1  UNL1        0.0618
     39 H           4.3700   -2.1163   -0.1077 H       1  UNL1        0.0624
@<TRIPOS>BOND
     1     1     2    1
     2     2     3    2
     3     3     4   ar
     4     4     5   ar
     5     5     6   ar
     6     6     7   ar
     7     7     8   ar
     8     8     9   ar
     9     9    10   ar
    10    10    11   ar
    11    11    12   ar
    12    12    13   ar
    13    13    14   ar
    14    14    15   ar
    15    15    16   ar
    16    16    17   ar
    17    17    18   ar
    18    18    19    2
    19    13    20    1
    20    20    21   ar
    21    21    22   ar
    22    22    23   ar
    23    23    24   ar
    24    24    25   ar
    25    19     1    1
    26    25    20   ar
    27    18     3   ar
    28     8     4   ar
    29    17     9   ar
    30    16    11   ar
    31     1    26    1
    32     1    27    1
    33     2    28    1
    34     5    29    1
    35     6    30    1
    36     7    31    1
    37    12    32    1
    38    15    33    1
    39    19    34    1
    40    21    35    1
    41    22    36    1
    42    23    37    1
    43    24    38    1
    44    25    39    1
