@<TRIPOS>MOLECULE
*****
 47 54 0 0 0
SMALL
GASTEIGER

@<TRIPOS>ATOM
      1 C           1.3446   -3.8804   -1.5726 C.3     1  UNL1        0.0000
      2 C           2.4524   -2.8892   -1.3897 C.2     1  UNL1        0.0000
      3 C           1.9583   -1.7349   -0.9084 C.ar    1  UNL1        0.0000
      4 C           2.6681   -0.5098   -0.5047 C.ar    1  UNL1        0.0000
      5 C           4.0759   -0.4554   -0.5121 C.ar    1  UNL1        0.0000
      6 C           4.7212    0.6408    0.0364 C.ar    1  UNL1        0.0000
      7 C           6.1807    0.8141    0.1106 C.2     1  UNL1        0.0000
      8 C           6.5638    1.9378    0.7437 C.2     1  UNL1        0.0000
      9 SI          5.1151    2.9656    1.3564 Si      1  UNL1        0.0000
     10 C           3.9660    1.6703    0.6254 C.ar    1  UNL1        0.0000
     11 C           2.5715    1.6288    0.6283 C.ar    1  UNL1        0.0000
     12 C           1.8794    0.5756   -0.0036 C.ar    1  UNL1        0.0000
     13 C           0.3861    0.5100   -0.0708 C.ar    1  UNL1        0.0000
     14 C          -0.5367    1.5800    0.0564 C.ar    1  UNL1        0.0000
     15 C          -0.2110    2.9186    0.0061 C.ar    1  UNL1        0.0000
     16 S          -1.5610    3.9460    0.2500 S.2     1  UNL1        0.0000
     17 C          -2.6367    2.6180    0.2998 C.ar    1  UNL1        0.0000
     18 C          -1.9876    1.4154    0.1222 C.ar    1  UNL1        0.0000
     19 C          -2.6592    0.1821    0.0345 C.ar    1  UNL1        0.0000
     20 C          -1.7434   -0.8687   -0.2235 C.ar    1  UNL1        0.0000
     21 C          -0.3153   -0.7244   -0.3092 C.ar    1  UNL1        0.0000
     22 C           0.5150   -1.8649   -0.7475 C.ar    1  UNL1        0.0000
     23 C           0.1454   -3.1024   -1.1234 C.2     1  UNL1        0.0000
     24 C          -4.0990   -0.0077    0.1116 C.ar    1  UNL1        0.0000
     25 N          -4.9271    0.8151   -0.6177 N.ar    1  UNL1        0.0000
     26 C          -6.2885    0.6649   -0.6026 C.ar    1  UNL1        0.0000
     27 C          -7.0226   -0.2806    0.1028 C.ar    1  UNL1        0.0000
     28 C          -6.2235   -1.1522    0.8643 C.ar    1  UNL1        0.0000
     29 N          -6.6844   -2.1523    1.6321 N.ar    1  UNL1        0.0000
     30 S          -5.3559   -2.8716    2.3182 S.2     1  UNL1        0.0000
     31 N          -4.1378   -1.9554    1.6662 N.ar    1  UNL1        0.0000
     32 C          -4.7214   -1.0306    0.8804 C.ar    1  UNL1        0.0000
     33 H           1.4981   -4.7649   -0.9476 H       1  UNL1        0.0000
     34 H           1.2517   -4.1797   -2.6206 H       1  UNL1        0.0000
     35 H           3.4859   -3.1154   -1.5984 H       1  UNL1        0.0000
     36 H           4.6654   -1.2748   -0.9092 H       1  UNL1        0.0000
     37 H           6.8594    0.0858   -0.3128 H       1  UNL1        0.0000
     38 H           7.5795    2.2609    0.9118 H       1  UNL1        0.0000
     39 H           5.0537    3.0219    2.8381 H       1  UNL1        0.0000
     40 H           5.0208    4.2739    0.6618 H       1  UNL1        0.0000
     41 H           2.0390    2.4059    1.1664 H       1  UNL1        0.0000
     42 H           0.7413    3.3920   -0.1745 H       1  UNL1        0.0000
     43 H          -3.6938    2.8112    0.4176 H       1  UNL1        0.0000
     44 H          -2.1670   -1.8596   -0.3893 H       1  UNL1        0.0000
     45 H          -0.8544   -3.5057   -1.1441 H       1  UNL1        0.0000
     46 H          -6.8114    1.3886   -1.2284 H       1  UNL1        0.0000
     47 H          -8.1006   -0.3432    0.0697 H       1  UNL1        0.0000
@<TRIPOS>BOND
     1     1     2    1
     2     2     3    2
     3     3     4   ar
     4     4     5   ar
     5     5     6   ar
     6     6     7    1
     7     7     8    2
     8     8     9    1
     9     9    10    1
    10    10    11   ar
    11    11    12   ar
    12    12    13   ar
    13    13    14   ar
    14    14    15   ar
    15    15    16   ar
    16    16    17   ar
    17    17    18   ar
    18    18    19   ar
    19    19    20   ar
    20    20    21   ar
    21    21    22   ar
    22    22    23    2
    23    19    24    1
    24    24    25   ar
    25    25    26   ar
    26    26    27   ar
    27    27    28   ar
    28    28    29   ar
    29    29    30   ar
    30    30    31   ar
    31    31    32   ar
    32    23     1    1
    33    32    24   ar
    34    22     3   ar
    35    32    28   ar
    36    12     4   ar
    37    21    13   ar
    38    10     6   ar
    39    18    14   ar
    40     1    33    1
    41     1    34    1
    42     2    35    1
    43     5    36    1
    44     7    37    1
    45     8    38    1
    46     9    39    1
    47     9    40    1
    48    11    41    1
    49    15    42    1
    50    17    43    1
    51    20    44    1
    52    23    45    1
    53    26    46    1
    54    27    47    1
