@<TRIPOS>MOLECULE
*****
 41 47 0 0 0
SMALL
GASTEIGER

@<TRIPOS>ATOM
      1 C           0.4215   -2.5641   -3.4047 C.3     1  UNL1       -0.0148
      2 C          -0.8511   -2.0474   -2.7994 C.2     1  UNL1       -0.0719
      3 C          -0.5698   -1.2702   -1.7395 C.ar    1  UNL1       -0.0134
      4 C          -1.4730   -0.5443   -0.8291 C.ar    1  UNL1       -0.0078
      5 C          -2.8727   -0.5852   -0.9792 C.ar    1  UNL1       -0.0456
      6 C          -3.7281    0.1071   -0.1108 C.ar    1  UNL1       -0.0151
      7 C          -5.1386    0.0468   -0.2876 C.ar    1  UNL1       -0.0519
      8 C          -6.0669    0.7101    0.5369 C.ar    1  UNL1       -0.0329
      9 C          -5.5263    1.4733    1.5952 C.ar    1  UNL1        0.1005
     10 N          -6.2367    2.1777    2.4895 N.ar    1  UNL1       -0.1908
     11 S          -5.1347    2.8843    3.5102 S.2     1  UNL1        0.1165
     12 N          -3.7113    2.3295    2.8648 N.ar    1  UNL1       -0.1902
     13 C          -4.0368    1.5586    1.8109 C.ar    1  UNL1        0.1076
     14 C          -3.1338    0.8601    0.9376 C.ar    1  UNL1        0.0109
     15 C          -1.7310    0.9046    1.0928 C.ar    1  UNL1       -0.0421
     16 C          -0.8774    0.2084    0.2192 C.ar    1  UNL1        0.0093
     17 C           0.6056    0.2568    0.3851 C.ar    1  UNL1        0.0793
     18 N           1.0737    1.0047    1.4185 N.ar    1  UNL1       -0.2537
     19 C           2.4182    1.0696    1.5973 C.ar    1  UNL1        0.0380
     20 C           3.3601    0.4264    0.8004 C.ar    1  UNL1        0.0258
     21 C           2.8530   -0.3387   -0.2588 C.ar    1  UNL1       -0.0408
     22 C           1.4740   -0.4335   -0.4799 C.ar    1  UNL1        0.0090
     23 C           0.8774   -1.2144   -1.5663 C.ar    1  UNL1       -0.0120
     24 C           1.4673   -1.9557   -2.5187 C.2     1  UNL1       -0.0719
     25 C           4.8157    0.5077    1.0087 C.ar    1  UNL1        0.1097
     26 N           5.7003   -0.1097    0.2447 N.ar    1  UNL1       -0.2473
     27 C           6.9838    0.1505    0.6801 C.ar    1  UNL1        0.0354
     28 C           7.0804    0.9696    1.7805 C.ar    1  UNL1       -0.0042
     29 S           5.5148    1.4317    2.2903 S.2     1  UNL1       -0.0756
     30 H           0.5331   -2.2239   -4.4383 H       1  UNL1        0.0350
     31 H           0.4602   -3.6566   -3.3684 H       1  UNL1        0.0350
     32 H          -1.8286   -2.2870   -3.1869 H       1  UNL1        0.0581
     33 H          -3.3047   -1.1684   -1.7893 H       1  UNL1        0.0630
     34 H          -5.5418   -0.5472   -1.1102 H       1  UNL1        0.0624
     35 H          -7.1357    0.6429    0.3741 H       1  UNL1        0.0640
     36 H          -1.3074    1.4918    1.9077 H       1  UNL1        0.0631
     37 H           2.7027    1.6877    2.4445 H       1  UNL1        0.0836
     38 H           3.5468   -0.8626   -0.9127 H       1  UNL1        0.0631
     39 H           2.5267   -2.1107   -2.6541 H       1  UNL1        0.0581
     40 H           7.8218   -0.2880    0.1518 H       1  UNL1        0.0835
     41 H           7.9693    1.3078    2.2930 H       1  UNL1        0.0709
@<TRIPOS>BOND
     1     1     2    1
     2     2     3    2
     3     3     4   ar
     4     4     5   ar
     5     5     6   ar
     6     6     7   ar
     7     7     8   ar
     8     8     9   ar
     9     9    10   ar
    10    10    11   ar
    11    11    12   ar
    12    12    13   ar
    13    13    14   ar
    14    14    15   ar
    15    15    16   ar
    16    16    17   ar
    17    17    18   ar
    18    18    19   ar
    19    19    20   ar
    20    20    21   ar
    21    21    22   ar
    22    22    23   ar
    23    23    24    2
    24    20    25    1
    25    25    26   ar
    26    26    27   ar
    27    27    28   ar
    28    28    29   ar
    29    24     1    1
    30    29    25   ar
    31    23     3   ar
    32    16     4   ar
    33    22    17   ar
    34    14     6   ar
    35    13     9   ar
    36     1    30    1
    37     1    31    1
    38     2    32    1
    39     5    33    1
    40     7    34    1
    41     8    35    1
    42    15    36    1
    43    19    37    1
    44    21    38    1
    45    24    39    1
    46    27    40    1
    47    28    41    1
