@<TRIPOS>MOLECULE
*****
 47 54 0 0 0
SMALL
GASTEIGER

@<TRIPOS>ATOM
      1 C          -4.3026    0.6994   -3.7419 C.3     1  UNL1        0.0000
      2 C          -4.7417    0.2223   -2.3905 C.2     1  UNL1        0.0000
      3 C          -3.6867    0.1535   -1.5584 C.ar    1  UNL1        0.0000
      4 C          -3.6547   -0.1794   -0.1338 C.ar    1  UNL1        0.0000
      5 C          -4.8799   -0.6108    0.5769 C.ar    1  UNL1        0.0000
      6 C          -4.9407   -0.8310    1.8991 C.ar    1  UNL1        0.0000
      7 C          -3.7705   -0.5614    2.6900 C.ar    1  UNL1        0.0000
      8 C          -3.7476   -0.5968    4.0351 C.2     1  UNL1        0.0000
      9 SI         -2.1130    0.0140    4.6822 Si      1  UNL1        0.0000
     10 C          -1.5853    0.2927    2.9078 C.2     1  UNL1        0.0000
     11 C          -2.5208   -0.1184    2.0229 C.ar    1  UNL1        0.0000
     12 C          -2.4541   -0.0685    0.5332 C.ar    1  UNL1        0.0000
     13 C          -1.1651    0.1168   -0.2662 C.ar    1  UNL1        0.0000
     14 C           0.0840   -0.2027    0.3009 C.ar    1  UNL1        0.0000
     15 C           1.2329    0.0375   -0.4514 C.ar    1  UNL1        0.0000
     16 O           2.5057   -0.1746   -0.0305 O.2     1  UNL1        0.0000
     17 C           3.3626    0.1843   -1.0428 C.ar    1  UNL1        0.0000
     18 C           2.5961    0.6181   -2.1178 C.ar    1  UNL1        0.0000
     19 C           1.2309    0.5244   -1.7430 C.ar    1  UNL1        0.0000
     20 C          -0.0045    0.7604   -2.3619 C.ar    1  UNL1        0.0000
     21 C          -1.1898    0.5236   -1.6304 C.ar    1  UNL1        0.0000
     22 C          -2.4987    0.5701   -2.2846 C.ar    1  UNL1        0.0000
     23 C          -2.8303    0.8920   -3.5464 C.2     1  UNL1        0.0000
     24 C           4.7912    0.0891   -0.9264 C.ar    1  UNL1        0.0000
     25 S           5.8793    0.5090   -2.2058 S.2     1  UNL1        0.0000
     26 C           7.2804    0.1245   -1.2869 C.ar    1  UNL1        0.0000
     27 C           6.8735   -0.2975   -0.0703 C.ar    1  UNL1        0.0000
     28 C           7.5764   -0.7363    1.0764 C.ar    1  UNL1        0.0000
     29 C           6.7199   -1.0809    2.1269 C.ar    1  UNL1        0.0000
     30 S           4.9991   -0.9039    1.8194 S.2     1  UNL1        0.0000
     31 C           5.4984   -0.3324    0.1726 C.ar    1  UNL1        0.0000
     32 H          -4.5050   -0.0519   -4.5107 H       1  UNL1        0.0000
     33 H          -4.7922    1.6410   -4.0069 H       1  UNL1        0.0000
     34 H          -5.7708    0.0093   -2.1492 H       1  UNL1        0.0000
     35 H          -5.7701   -0.7895   -0.0166 H       1  UNL1        0.0000
     36 H          -5.8563   -1.1590    2.3771 H       1  UNL1        0.0000
     37 H          -4.5580   -0.8574    4.6968 H       1  UNL1        0.0000
     38 H          -1.3277   -1.0547    5.3454 H       1  UNL1        0.0000
     39 H          -2.2398    1.2810    5.4422 H       1  UNL1        0.0000
     40 H          -0.6314    0.7526    2.7144 H       1  UNL1        0.0000
     41 H           0.1892   -0.6475    1.2806 H       1  UNL1        0.0000
     42 H           2.9761    0.9573   -3.0711 H       1  UNL1        0.0000
     43 H          -0.0321    1.0830   -3.3967 H       1  UNL1        0.0000
     44 H          -2.1644    1.2170   -4.3298 H       1  UNL1        0.0000
     45 H           8.2760    0.2327   -1.6934 H       1  UNL1        0.0000
     46 H           8.6541   -0.8075    1.1591 H       1  UNL1        0.0000
     47 H           7.0080   -1.4434    3.1043 H       1  UNL1        0.0000
@<TRIPOS>BOND
     1     1     2    1
     2     2     3    2
     3     3     4   ar
     4     4     5   ar
     5     5     6   ar
     6     6     7   ar
     7     7     8    2
     8     8     9    1
     9     9    10    1
    10    10    11    2
    11    11    12   ar
    12    12    13   ar
    13    13    14   ar
    14    14    15   ar
    15    15    16   ar
    16    16    17   ar
    17    17    18   ar
    18    18    19   ar
    19    19    20   ar
    20    20    21   ar
    21    21    22   ar
    22    22    23    2
    23    17    24    1
    24    24    25   ar
    25    25    26   ar
    26    26    27   ar
    27    27    28   ar
    28    28    29   ar
    29    29    30   ar
    30    30    31   ar
    31    23     1    1
    32    31    24   ar
    33    22     3   ar
    34    31    27   ar
    35    12     4   ar
    36    21    13   ar
    37    11     7   ar
    38    19    15   ar
    39     1    32    1
    40     1    33    1
    41     2    34    1
    42     5    35    1
    43     6    36    1
    44     8    37    1
    45     9    38    1
    46     9    39    1
    47    10    40    1
    48    14    41    1
    49    18    42    1
    50    20    43    1
    51    23    44    1
    52    26    45    1
    53    28    46    1
    54    29    47    1
