@<TRIPOS>MOLECULE
*****
 42 47 0 0 0
SMALL
GASTEIGER

@<TRIPOS>ATOM
      1 C          -1.1984    3.3995   -2.6854 C.3     1  UNL1        0.0000
      2 C          -2.3235    2.7224   -1.9588 C.2     1  UNL1        0.0000
      3 C          -1.8521    1.6992   -1.2252 C.ar    1  UNL1        0.0000
      4 C          -2.5788    0.7396   -0.3905 C.ar    1  UNL1        0.0000
      5 C          -4.0505    0.8108   -0.2538 C.ar    1  UNL1        0.0000
      6 C          -4.7860   -0.0980    0.4058 C.ar    1  UNL1        0.0000
      7 C          -4.1185   -1.2420    0.9641 C.ar    1  UNL1        0.0000
      8 C          -4.7605   -2.2904    1.5164 C.2     1  UNL1        0.0000
      9 SI         -3.5641   -3.6424    1.9578 Si      1  UNL1        0.0000
     10 C          -2.1893   -2.5567    1.2778 C.2     1  UNL1        0.0000
     11 C          -2.6413   -1.3540    0.8642 C.ar    1  UNL1        0.0000
     12 C          -1.8562   -0.2441    0.2522 C.ar    1  UNL1        0.0000
     13 C          -0.3398   -0.1711    0.2473 C.ar    1  UNL1        0.0000
     14 C           0.4581   -0.8309    1.1745 C.ar    1  UNL1        0.0000
     15 N           1.8179   -0.8506    1.1909 N.ar    1  UNL1        0.0000
     16 C           2.4700   -0.1454    0.2317 C.ar    1  UNL1        0.0000
     17 C           1.7671    0.6236   -0.6881 C.ar    1  UNL1        0.0000
     18 C           0.3686    0.6510   -0.6481 C.ar    1  UNL1        0.0000
     19 C          -0.4134    1.6185   -1.4127 C.ar    1  UNL1        0.0000
     20 C          -0.0132    2.5905   -2.2513 C.2     1  UNL1        0.0000
     21 C           3.9518   -0.1790    0.2564 C.ar    1  UNL1        0.0000
     22 C           4.6637   -0.7495    1.3139 C.ar    1  UNL1        0.0000
     23 C           6.0579   -0.7120    1.3022 C.ar    1  UNL1        0.0000
     24 C           6.7160   -0.1131    0.2387 C.ar    1  UNL1        0.0000
     25 C           5.9483    0.4063   -0.7924 C.ar    1  UNL1        0.0000
     26 N           4.5974    0.3899   -0.8041 N.ar    1  UNL1        0.0000
     27 H          -1.3378    3.3537   -3.7706 H       1  UNL1        0.0000
     28 H          -1.1013    4.4436   -2.3661 H       1  UNL1        0.0000
     29 H          -3.3510    3.0367   -2.0517 H       1  UNL1        0.0000
     30 H          -4.5577    1.6579   -0.7038 H       1  UNL1        0.0000
     31 H          -5.8628   -0.0053    0.4831 H       1  UNL1        0.0000
     32 H          -5.8237   -2.4108    1.6490 H       1  UNL1        0.0000
     33 H          -3.7673   -4.8616    1.1407 H       1  UNL1        0.0000
     34 H          -3.4445   -3.8515    3.4206 H       1  UNL1        0.0000
     35 H          -1.1933   -2.9611    1.2346 H       1  UNL1        0.0000
     36 H           0.0301   -1.3613    2.0153 H       1  UNL1        0.0000
     37 H           2.3101    1.2215   -1.4046 H       1  UNL1        0.0000
     38 H           0.9993    2.8095   -2.5524 H       1  UNL1        0.0000
     39 H           4.1393   -1.2084    2.1458 H       1  UNL1        0.0000
     40 H           6.6207   -1.1475    2.1271 H       1  UNL1        0.0000
     41 H           7.7977   -0.0621    0.2043 H       1  UNL1        0.0000
     42 H           6.4111    0.8744   -1.6551 H       1  UNL1        0.0000
@<TRIPOS>BOND
     1     1     2    1
     2     2     3    2
     3     3     4   ar
     4     4     5   ar
     5     5     6   ar
     6     6     7   ar
     7     7     8    2
     8     8     9    1
     9     9    10    1
    10    10    11    2
    11    11    12   ar
    12    12    13   ar
    13    13    14   ar
    14    14    15   ar
    15    15    16   ar
    16    16    17   ar
    17    17    18   ar
    18    18    19   ar
    19    19    20    2
    20    16    21    1
    21    21    22   ar
    22    22    23   ar
    23    23    24   ar
    24    24    25   ar
    25    25    26   ar
    26    20     1    1
    27    26    21   ar
    28    19     3   ar
    29    12     4   ar
    30    18    13   ar
    31    11     7   ar
    32     1    27    1
    33     1    28    1
    34     2    29    1
    35     5    30    1
    36     6    31    1
    37     8    32    1
    38     9    33    1
    39     9    34    1
    40    10    35    1
    41    14    36    1
    42    17    37    1
    43    20    38    1
    44    22    39    1
    45    23    40    1
    46    24    41    1
    47    25    42    1
