@<TRIPOS>MOLECULE
*****
 51 58 0 0 0
SMALL
GASTEIGER

@<TRIPOS>ATOM
      1 C          -1.0954    4.5108    0.7035 C.3     1  UNL1       -0.0148
      2 C          -2.3065    3.7436    0.2667 C.2     1  UNL1       -0.0719
      3 C          -2.0223    2.4301    0.2178 C.ar    1  UNL1       -0.0135
      4 C          -2.9189    1.2885   -0.0408 C.ar    1  UNL1       -0.0093
      5 C          -4.2733    1.4783   -0.3276 C.ar    1  UNL1       -0.0528
      6 C          -5.1433    0.3951   -0.3418 C.ar    1  UNL1       -0.0534
      7 C          -4.7001   -0.8745    0.0349 C.ar    1  UNL1       -0.0173
      8 C          -5.6349   -1.9177    0.1533 C.ar    1  UNL1       -0.0540
      9 C          -5.2585   -3.1707    0.6282 C.ar    1  UNL1       -0.0612
     10 C          -3.9451   -3.3866    1.0120 C.ar    1  UNL1       -0.0611
     11 C          -3.0047   -2.3608    0.8778 C.ar    1  UNL1       -0.0534
     12 C          -3.3282   -1.0916    0.3334 C.ar    1  UNL1       -0.0096
     13 C          -2.3900   -0.0230    0.1371 C.ar    1  UNL1       -0.0013
     14 C          -0.9027   -0.1771    0.1714 C.ar    1  UNL1        0.0002
     15 C          -0.1412   -1.2747   -0.2801 C.ar    1  UNL1        0.0083
     16 C          -0.5649   -2.3575   -1.0182 C.ar    1  UNL1        0.0100
     17 N           0.5234   -3.1672   -1.2545 N.ar    1  UNL1       -0.3659
     18 C           1.6619   -2.5833   -0.7537 C.ar    1  UNL1        0.0100
     19 C           1.2881   -1.3932   -0.1758 C.ar    1  UNL1        0.0082
     20 C           2.1352   -0.4218    0.3589 C.ar    1  UNL1       -0.0013
     21 C           1.4255    0.7575    0.6660 C.ar    1  UNL1       -0.0446
     22 C          -0.0059    0.8954    0.5343 C.ar    1  UNL1       -0.0086
     23 C          -0.6275    2.2324    0.5998 C.ar    1  UNL1       -0.0135
     24 C          -0.0793    3.4251    0.8906 C.2     1  UNL1       -0.0719
     25 C           3.5745   -0.5436    0.4354 C.ar    1  UNL1        0.0240
     26 S           4.3019   -1.5984    1.6000 S.2     1  UNL1       -0.0958
     27 C           5.9093   -1.1878    1.1107 C.ar    1  UNL1       -0.0163
     28 C           5.8534   -0.2724    0.1052 C.ar    1  UNL1       -0.0142
     29 C           6.7934    0.4317   -0.6865 C.2     1  UNL1       -0.0574
     30 C           6.1315    1.2317   -1.5541 C.2     1  UNL1       -0.0791
     31 C           4.6125    1.1035   -1.3848 C.3     1  UNL1       -0.0075
     32 C           4.5471    0.1030   -0.2818 C.ar    1  UNL1       -0.0217
     33 H          -1.2814    5.0423    1.6413 H       1  UNL1        0.0350
     34 H          -0.7788    5.2201   -0.0667 H       1  UNL1        0.0350
     35 H          -3.2617    4.2066    0.0770 H       1  UNL1        0.0581
     36 H          -4.6741    2.4697   -0.5155 H       1  UNL1        0.0624
     37 H          -6.1927    0.5717   -0.5680 H       1  UNL1        0.0624
     38 H          -6.6802   -1.7515   -0.0998 H       1  UNL1        0.0624
     39 H          -5.9961   -3.9620    0.7278 H       1  UNL1        0.0618
     40 H          -3.6446   -4.3455    1.4255 H       1  UNL1        0.0618
     41 H          -1.9977   -2.5604    1.2384 H       1  UNL1        0.0624
     42 H          -1.5329   -2.6359   -1.4123 H       1  UNL1        0.0813
     43 H           0.4956   -4.0390   -1.7674 H       1  UNL1        0.1648
     44 H           2.6271   -3.0524   -0.8916 H       1  UNL1        0.0813
     45 H           2.0101    1.6199    0.9823 H       1  UNL1        0.0630
     46 H           0.9412    3.6169    1.1815 H       1  UNL1        0.0581
     47 H           6.7673   -1.6368    1.5899 H       1  UNL1        0.0699
     48 H           7.8667    0.3371   -0.6032 H       1  UNL1        0.0621
     49 H           6.5953    1.8828   -2.2799 H       1  UNL1        0.0575
     50 H           4.1725    2.0614   -1.0939 H       1  UNL1        0.0356
     51 H           4.1494    0.7301   -2.3023 H       1  UNL1        0.0356
@<TRIPOS>BOND
     1     1     2    1
     2     2     3    2
     3     3     4   ar
     4     4     5   ar
     5     5     6   ar
     6     6     7   ar
     7     7     8   ar
     8     8     9   ar
     9     9    10   ar
    10    10    11   ar
    11    11    12   ar
    12    12    13   ar
    13    13    14   ar
    14    14    15   ar
    15    15    16   ar
    16    16    17   ar
    17    17    18   ar
    18    18    19   ar
    19    19    20   ar
    20    20    21   ar
    21    21    22   ar
    22    22    23   ar
    23    23    24    2
    24    20    25    1
    25    25    26   ar
    26    26    27   ar
    27    27    28   ar
    28    28    29    1
    29    29    30    2
    30    30    31    1
    31    31    32    1
    32    24     1    1
    33    32    25   ar
    34    23     3   ar
    35    32    28   ar
    36    13     4   ar
    37    22    14   ar
    38    12     7   ar
    39    19    15   ar
    40     1    33    1
    41     1    34    1
    42     2    35    1
    43     5    36    1
    44     6    37    1
    45     8    38    1
    46     9    39    1
    47    10    40    1
    48    11    41    1
    49    16    42    1
    50    17    43    1
    51    18    44    1
    52    21    45    1
    53    24    46    1
    54    27    47    1
    55    29    48    1
    56    30    49    1
    57    31    50    1
    58    31    51    1
