@<TRIPOS>MOLECULE
*****
 46 52 0 0 0
SMALL
GASTEIGER

@<TRIPOS>ATOM
      1 C          -3.1301   -0.9471    4.2048 C.3     1  UNL1       -0.0148
      2 C          -3.8406   -0.4866    2.9677 C.2     1  UNL1       -0.0719
      3 C          -2.9580   -0.3376    1.9641 C.ar    1  UNL1       -0.0135
      4 C          -3.1892   -0.0021    0.5508 C.ar    1  UNL1       -0.0093
      5 C          -4.4716    0.2970    0.0828 C.ar    1  UNL1       -0.0528
      6 C          -4.7040    0.4463   -1.2780 C.ar    1  UNL1       -0.0534
      7 C          -3.6881    0.2020   -2.2031 C.ar    1  UNL1       -0.0173
      8 C          -3.9980    0.2455   -3.5736 C.ar    1  UNL1       -0.0540
      9 C          -3.0508   -0.0841   -4.5375 C.ar    1  UNL1       -0.0612
     10 C          -1.7885   -0.4875   -4.1374 C.ar    1  UNL1       -0.0611
     11 C          -1.4666   -0.5155   -2.7765 C.ar    1  UNL1       -0.0534
     12 C          -2.3760   -0.1190   -1.7594 C.ar    1  UNL1       -0.0096
     13 C          -2.0832   -0.0811   -0.3473 C.ar    1  UNL1       -0.0018
     14 C          -0.6777   -0.1196    0.2348 C.ar    1  UNL1       -0.0070
     15 C           0.4397    0.3497   -0.4913 C.ar    1  UNL1       -0.0294
     16 C           1.7256    0.2450    0.0590 C.ar    1  UNL1        0.0475
     17 N           2.9497    0.5898   -0.4669 N.ar    1  UNL1       -0.3537
     18 C           3.9653    0.3025    0.4167 C.ar    1  UNL1        0.0541
     19 C           3.3609   -0.2200    1.5468 C.ar    1  UNL1       -0.0281
     20 C           1.9560   -0.2541    1.3317 C.ar    1  UNL1        0.0009
     21 C           0.8509   -0.6217    2.1158 C.ar    1  UNL1       -0.0443
     22 C          -0.4513   -0.5140    1.5829 C.ar    1  UNL1       -0.0092
     23 C          -1.6282   -0.6720    2.4486 C.ar    1  UNL1       -0.0135
     24 C          -1.7077   -1.0328    3.7412 C.2     1  UNL1       -0.0719
     25 C           5.3540    0.5470    0.1232 C.ar    1  UNL1        0.0355
     26 C           5.8915    1.1334   -1.0095 C.ar    1  UNL1       -0.0455
     27 C           7.3156    1.2173   -0.9682 C.ar    1  UNL1       -0.0541
     28 C           7.8269    0.6925    0.1954 C.ar    1  UNL1       -0.0237
     29 S           6.5977    0.1063    1.2252 S.2     1  UNL1       -0.0952
     30 H          -3.2390   -0.2211    5.0157 H       1  UNL1        0.0350
     31 H          -3.4982   -1.9241    4.5312 H       1  UNL1        0.0350
     32 H          -4.9086   -0.3472    2.9175 H       1  UNL1        0.0581
     33 H          -5.3080    0.4044    0.7669 H       1  UNL1        0.0624
     34 H          -5.7119    0.6864   -1.6103 H       1  UNL1        0.0624
     35 H          -4.9994    0.5161   -3.9034 H       1  UNL1        0.0624
     36 H          -3.3114   -0.0588   -5.5918 H       1  UNL1        0.0618
     37 H          -1.0535   -0.7970   -4.8756 H       1  UNL1        0.0618
     38 H          -0.4881   -0.9113   -2.5164 H       1  UNL1        0.0624
     39 H           0.3226    0.8187   -1.4624 H       1  UNL1        0.0644
     40 H           3.0770    0.9873   -1.3852 H       1  UNL1        0.1659
     41 H           3.8696   -0.5378    2.4477 H       1  UNL1        0.0645
     42 H           1.0168   -0.9415    3.1386 H       1  UNL1        0.0630
     43 H          -0.8908   -1.3153    4.3860 H       1  UNL1        0.0581
     44 H           5.3037    1.4956   -1.8426 H       1  UNL1        0.0629
     45 H           7.9307    1.6416   -1.7521 H       1  UNL1        0.0623
     46 H           8.8641    0.6245    0.4934 H       1  UNL1        0.0693
@<TRIPOS>BOND
     1     1     2    1
     2     2     3    2
     3     3     4   ar
     4     4     5   ar
     5     5     6   ar
     6     6     7   ar
     7     7     8   ar
     8     8     9   ar
     9     9    10   ar
    10    10    11   ar
    11    11    12   ar
    12    12    13   ar
    13    13    14   ar
    14    14    15   ar
    15    15    16   ar
    16    16    17   ar
    17    17    18   ar
    18    18    19   ar
    19    19    20   ar
    20    20    21   ar
    21    21    22   ar
    22    22    23   ar
    23    23    24    2
    24    18    25    1
    25    25    26   ar
    26    26    27   ar
    27    27    28   ar
    28    28    29   ar
    29    24     1    1
    30    29    25   ar
    31    23     3   ar
    32    13     4   ar
    33    22    14   ar
    34    12     7   ar
    35    20    16   ar
    36     1    30    1
    37     1    31    1
    38     2    32    1
    39     5    33    1
    40     6    34    1
    41     8    35    1
    42     9    36    1
    43    10    37    1
    44    11    38    1
    45    15    39    1
    46    17    40    1
    47    19    41    1
    48    21    42    1
    49    24    43    1
    50    26    44    1
    51    27    45    1
    52    28    46    1
