@<TRIPOS>MOLECULE
*****
 48 55 0 0 0
SMALL
GASTEIGER

@<TRIPOS>ATOM
      1 C          -3.7232    2.5141   -3.0591 C.3     1  UNL1       -0.0148
      2 C          -4.5502    1.9005   -1.9707 C.2     1  UNL1       -0.0719
      3 C          -3.7600    1.2164   -1.1243 C.ar    1  UNL1       -0.0135
      4 C          -4.1199    0.4064    0.0571 C.ar    1  UNL1       -0.0092
      5 C          -5.5121    0.2600    0.4321 C.ar    1  UNL1       -0.0528
      6 C          -5.9801   -0.5773    1.4634 C.ar    1  UNL1       -0.0504
      7 C          -4.9226   -1.2680    2.0258 C.ar    1  UNL1        0.0205
      8 C          -5.0335   -2.2298    2.9925 C.ar    1  UNL1        0.0994
      9 O          -3.8007   -2.7491    3.2517 O.2     1  UNL1       -0.4698
     10 C          -2.9053   -2.1035    2.4436 C.ar    1  UNL1        0.1000
     11 C          -3.5337   -1.1382    1.6921 C.ar    1  UNL1        0.0281
     12 C          -3.0155   -0.2511    0.7262 C.ar    1  UNL1        0.0011
     13 C          -1.5904   -0.0035    0.3649 C.ar    1  UNL1       -0.0083
     14 C          -0.5062   -0.3978    1.1714 C.ar    1  UNL1       -0.0457
     15 C           0.8377   -0.1969    0.7986 C.ar    1  UNL1       -0.0172
     16 C           1.8974   -0.6311    1.6104 C.ar    1  UNL1       -0.0534
     17 C           3.2255   -0.4313    1.2233 C.ar    1  UNL1       -0.0529
     18 C           3.5258    0.2132    0.0193 C.ar    1  UNL1       -0.0101
     19 C           2.4689    0.6538   -0.7897 C.ar    1  UNL1       -0.0458
     20 C           1.1281    0.4570   -0.4109 C.ar    1  UNL1       -0.0167
     21 C           0.0681    0.9215   -1.1988 C.ar    1  UNL1       -0.0457
     22 C          -1.2704    0.7236   -0.8141 C.ar    1  UNL1       -0.0093
     23 C          -2.3776    1.3269   -1.5744 C.ar    1  UNL1       -0.0135
     24 C          -2.3397    2.0710   -2.6941 C.2     1  UNL1       -0.0719
     25 C           4.9179    0.4085   -0.3815 C.ar    1  UNL1        0.0276
     26 S           5.5135    1.9814   -0.7852 S.2     1  UNL1       -0.0949
     27 C           7.1125    1.4148   -1.0888 C.ar    1  UNL1       -0.0094
     28 C           7.1851    0.0670   -0.8864 C.ar    1  UNL1        0.0269
     29 S           8.5648   -1.0790   -1.0437 S.2     1  UNL1       -0.0961
     30 C           7.3998   -2.3073   -0.5658 C.ar    1  UNL1       -0.0231
     31 C           6.0965   -1.8617   -0.3151 C.ar    1  UNL1       -0.0459
     32 C           5.9551   -0.4594   -0.4940 C.ar    1  UNL1        0.0040
     33 H          -4.0146    2.1302   -4.0411 H       1  UNL1        0.0350
     34 H          -3.8045    3.6049   -3.0495 H       1  UNL1        0.0350
     35 H          -5.6227    2.0001   -1.9238 H       1  UNL1        0.0581
     36 H          -6.2682    0.8146   -0.1226 H       1  UNL1        0.0624
     37 H          -7.0242   -0.6861    1.7191 H       1  UNL1        0.0625
     38 H          -5.8515   -2.6645    3.5491 H       1  UNL1        0.1035
     39 H          -1.8985   -2.4819    2.5287 H       1  UNL1        0.1036
     40 H          -0.6827   -0.8418    2.1437 H       1  UNL1        0.0630
     41 H           1.6980   -1.1324    2.5552 H       1  UNL1        0.0624
     42 H           4.0232   -0.7742    1.8788 H       1  UNL1        0.0624
     43 H           2.6892    1.1536   -1.7314 H       1  UNL1        0.0630
     44 H           0.2947    1.4650   -2.1123 H       1  UNL1        0.0630
     45 H          -1.4650    2.3473   -3.2611 H       1  UNL1        0.0581
     46 H           7.9128    2.0740   -1.3950 H       1  UNL1        0.0705
     47 H           7.7591   -3.3254   -0.4992 H       1  UNL1        0.0694
     48 H           5.2992   -2.5347   -0.0236 H       1  UNL1        0.0629
@<TRIPOS>BOND
     1     1     2    1
     2     2     3    2
     3     3     4   ar
     4     4     5   ar
     5     5     6   ar
     6     6     7   ar
     7     7     8   ar
     8     8     9   ar
     9     9    10   ar
    10    10    11   ar
    11    11    12   ar
    12    12    13   ar
    13    13    14   ar
    14    14    15   ar
    15    15    16   ar
    16    16    17   ar
    17    17    18   ar
    18    18    19   ar
    19    19    20   ar
    20    20    21   ar
    21    21    22   ar
    22    22    23   ar
    23    23    24    2
    24    18    25    1
    25    25    26   ar
    26    26    27   ar
    27    27    28   ar
    28    28    29   ar
    29    29    30   ar
    30    30    31   ar
    31    31    32   ar
    32    24     1    1
    33    32    25   ar
    34    23     3   ar
    35    32    28   ar
    36    12     4   ar
    37    22    13   ar
    38    11     7   ar
    39    20    15   ar
    40     1    33    1
    41     1    34    1
    42     2    35    1
    43     5    36    1
    44     6    37    1
    45     8    38    1
    46    10    39    1
    47    14    40    1
    48    16    41    1
    49    17    42    1
    50    19    43    1
    51    21    44    1
    52    24    45    1
    53    27    46    1
    54    30    47    1
    55    31    48    1
