@<TRIPOS>MOLECULE
*****
 48 55 0 0 0
SMALL
GASTEIGER

@<TRIPOS>ATOM
      1 C          -1.6044    3.7815    2.1104 C.3     1  UNL1       -0.0148
      2 C          -2.8352    3.0584    1.6717 C.2     1  UNL1       -0.0719
      3 C          -2.4963    1.9348    1.0160 C.ar    1  UNL1       -0.0135
      4 C          -3.3830    0.8992    0.4511 C.ar    1  UNL1       -0.0092
      5 C          -4.8032    1.1203    0.3540 C.ar    1  UNL1       -0.0528
      6 C          -5.6967    0.2595   -0.3109 C.ar    1  UNL1       -0.0529
      7 C          -5.0245   -0.7855   -0.9344 C.ar    1  UNL1       -0.0103
      8 C          -5.6850   -1.6726   -1.7488 C.ar    1  UNL1       -0.0166
      9 S          -4.5901   -2.7603   -2.4939 S.2     1  UNL1       -0.1039
     10 C          -3.2374   -2.0276   -1.7269 C.ar    1  UNL1       -0.0160
     11 C          -3.6016   -1.0387   -0.8393 C.ar    1  UNL1       -0.0026
     12 C          -2.7122   -0.2663   -0.0554 C.ar    1  UNL1       -0.0007
     13 C          -1.2679   -0.4703    0.1355 C.ar    1  UNL1        0.0008
     14 C          -0.5747   -1.6880    0.1896 C.ar    1  UNL1        0.0083
     15 C          -1.0972   -2.9522    0.3418 C.ar    1  UNL1        0.0100
     16 N          -0.0499   -3.8450    0.3596 N.ar    1  UNL1       -0.3659
     17 C           1.1450   -3.1676    0.2832 C.ar    1  UNL1        0.0100
     18 C           0.8478   -1.8264    0.2247 C.ar    1  UNL1        0.0078
     19 C           1.7696   -0.7580    0.1998 C.ar    1  UNL1       -0.0046
     20 C           3.1757   -0.8810    0.1375 C.ar    1  UNL1       -0.0243
     21 C           3.9354    0.2752    0.1091 C.ar    1  UNL1        0.1065
     22 N           3.3695    1.5015    0.1234 N.ar    1  UNL1       -0.2512
     23 C           2.0122    1.5781    0.1921 C.ar    1  UNL1        0.0367
     24 C           1.1138    0.5043    0.2731 C.ar    1  UNL1        0.0092
     25 C          -0.3514    0.6208    0.3868 C.ar    1  UNL1       -0.0001
     26 C          -1.0319    1.8340    0.9395 C.ar    1  UNL1       -0.0128
     27 C          -0.5165    2.8776    1.6178 C.2     1  UNL1       -0.0719
     28 C           5.3946    0.2371    0.0460 C.ar    1  UNL1        0.1529
     29 C           6.3351   -0.7774   -0.0029 C.ar    1  UNL1       -0.0144
     30 C           7.6087   -0.1579   -0.0517 C.ar    1  UNL1       -0.0233
     31 C           7.3737    1.1951   -0.0293 C.ar    1  UNL1        0.0926
     32 O           6.0419    1.4444    0.0301 O.2     1  UNL1       -0.4614
     33 H          -1.5726    3.8760    3.1998 H       1  UNL1        0.0350
     34 H          -1.5364    4.7720    1.6516 H       1  UNL1        0.0350
     35 H          -3.8309    3.4057    1.8969 H       1  UNL1        0.0581
     36 H          -5.2302    2.0220    0.7909 H       1  UNL1        0.0624
     37 H          -6.7574    0.4589   -0.3836 H       1  UNL1        0.0624
     38 H          -6.7400   -1.7259   -1.9803 H       1  UNL1        0.0699
     39 H          -2.2514   -2.3813   -1.9897 H       1  UNL1        0.0700
     40 H          -2.1110   -3.3132    0.4531 H       1  UNL1        0.0813
     41 H          -0.1459   -4.8485    0.4515 H       1  UNL1        0.1648
     42 H           2.0795   -3.7103    0.3132 H       1  UNL1        0.0813
     43 H           3.6426   -1.8570    0.1048 H       1  UNL1        0.0646
     44 H           1.6573    2.6020    0.1221 H       1  UNL1        0.0836
     45 H           0.5152    3.0582    1.8717 H       1  UNL1        0.0581
     46 H           6.1312   -1.8383   -0.0040 H       1  UNL1        0.0656
     47 H           8.5764   -0.6366   -0.0976 H       1  UNL1        0.0649
     48 H           8.0094    2.0691   -0.0487 H       1  UNL1        0.1029
@<TRIPOS>BOND
     1     1     2    1
     2     2     3    2
     3     3     4   ar
     4     4     5   ar
     5     5     6   ar
     6     6     7   ar
     7     7     8   ar
     8     8     9   ar
     9     9    10   ar
    10    10    11   ar
    11    11    12   ar
    12    12    13   ar
    13    13    14   ar
    14    14    15   ar
    15    15    16   ar
    16    16    17   ar
    17    17    18   ar
    18    18    19   ar
    19    19    20   ar
    20    20    21   ar
    21    21    22   ar
    22    22    23   ar
    23    23    24   ar
    24    24    25   ar
    25    25    26   ar
    26    26    27    2
    27    21    28    1
    28    28    29   ar
    29    29    30   ar
    30    30    31   ar
    31    31    32   ar
    32    27     1    1
    33    32    28   ar
    34    26     3   ar
    35    12     4   ar
    36    25    13   ar
    37    11     7   ar
    38    18    14   ar
    39    24    19   ar
    40     1    33    1
    41     1    34    1
    42     2    35    1
    43     5    36    1
    44     6    37    1
    45     8    38    1
    46    10    39    1
    47    15    40    1
    48    16    41    1
    49    17    42    1
    50    20    43    1
    51    23    44    1
    52    27    45    1
    53    29    46    1
    54    30    47    1
    55    31    48    1
