@<TRIPOS>MOLECULE
*****
 47 54 0 0 0
SMALL
GASTEIGER

@<TRIPOS>ATOM
      1 C          -2.3571   -3.9103    0.5591 C.3     1  UNL1       -0.0148
      2 C          -3.5073   -3.0388    0.1680 C.2     1  UNL1       -0.0719
      3 C          -3.0924   -1.7664    0.0326 C.ar    1  UNL1       -0.0134
      4 C          -3.8896   -0.5611   -0.2560 C.ar    1  UNL1       -0.0093
      5 C          -5.3153   -0.6617   -0.4396 C.ar    1  UNL1       -0.0528
      6 C          -6.1804    0.4396   -0.5635 C.ar    1  UNL1       -0.0529
      7 C          -5.4978    1.6398   -0.4109 C.ar    1  UNL1       -0.0103
      8 C          -6.1717    2.8365   -0.3899 C.ar    1  UNL1       -0.0166
      9 S          -5.1076    4.1389   -0.0716 S.2     1  UNL1       -0.1039
     10 C          -3.7513    3.0876    0.0427 C.ar    1  UNL1       -0.0160
     11 C          -4.0632    1.7752   -0.2414 C.ar    1  UNL1       -0.0026
     12 C          -3.1596    0.6797   -0.2446 C.ar    1  UNL1       -0.0013
     13 C          -1.6671    0.7265   -0.2123 C.ar    1  UNL1       -0.0069
     14 C          -0.9542    1.8568   -0.6347 C.ar    1  UNL1       -0.0527
     15 C           0.4326    1.9243   -0.5449 C.ar    1  UNL1       -0.0519
     16 C           1.1656    0.8405   -0.0630 C.ar    1  UNL1        0.0016
     17 C           2.5662    0.9409    0.0438 C.ar    1  UNL1       -0.0418
     18 C           3.3459   -0.1287    0.4858 C.ar    1  UNL1        0.0212
     19 C           2.6253   -1.2667    0.8152 C.ar    1  UNL1        0.0375
     20 N           1.2767   -1.3985    0.7191 N.ar    1  UNL1       -0.2537
     21 C           0.5206   -0.3617    0.2878 C.ar    1  UNL1        0.0793
     22 C          -0.8957   -0.4219    0.1620 C.ar    1  UNL1        0.0161
     23 C          -1.6575   -1.6923    0.3087 C.ar    1  UNL1       -0.0114
     24 C          -1.2304   -2.9304    0.6196 C.2     1  UNL1       -0.0719
     25 C           4.8026   -0.0947    0.6236 C.ar    1  UNL1        0.1005
     26 N           5.3813   -0.9573    1.5327 N.ar    1  UNL1       -0.2526
     27 C           6.7348   -1.0021    1.7359 C.ar    1  UNL1        0.0304
     28 C           7.7044   -0.2425    1.0963 C.ar    1  UNL1       -0.0153
     29 C           7.1764    0.6470    0.1440 C.ar    1  UNL1        0.1034
     30 N           7.9036    1.4825   -0.6143 N.ar    1  UNL1       -0.1907
     31 S           6.8322    2.2986   -1.5802 S.2     1  UNL1        0.1165
     32 N           5.3985    1.6391   -1.0744 N.ar    1  UNL1       -0.1886
     33 C           5.6913    0.7389   -0.1163 C.ar    1  UNL1        0.1258
     34 H          -2.5276   -4.3778    1.5331 H       1  UNL1        0.0350
     35 H          -2.1715   -4.6819   -0.1936 H       1  UNL1        0.0350
     36 H          -4.5116   -3.4139    0.0563 H       1  UNL1        0.0581
     37 H          -5.7780   -1.6473   -0.4675 H       1  UNL1        0.0624
     38 H          -7.2497    0.3331   -0.6881 H       1  UNL1        0.0624
     39 H          -7.2303    3.0214   -0.5117 H       1  UNL1        0.0699
     40 H          -2.8112    3.5276    0.3369 H       1  UNL1        0.0700
     41 H          -1.4579    2.7071   -1.0843 H       1  UNL1        0.0624
     42 H           0.9338    2.8346   -0.8686 H       1  UNL1        0.0624
     43 H           3.0400    1.8845   -0.2187 H       1  UNL1        0.0631
     44 H           3.1268   -2.1609    1.1814 H       1  UNL1        0.0836
     45 H          -0.2211   -3.2267    0.8577 H       1  UNL1        0.0581
     46 H           7.0371   -1.7283    2.4908 H       1  UNL1        0.0830
     47 H           8.7611   -0.3287    1.3034 H       1  UNL1        0.0655
@<TRIPOS>BOND
     1     1     2    1
     2     2     3    2
     3     3     4   ar
     4     4     5   ar
     5     5     6   ar
     6     6     7   ar
     7     7     8   ar
     8     8     9   ar
     9     9    10   ar
    10    10    11   ar
    11    11    12   ar
    12    12    13   ar
    13    13    14   ar
    14    14    15   ar
    15    15    16   ar
    16    16    17   ar
    17    17    18   ar
    18    18    19   ar
    19    19    20   ar
    20    20    21   ar
    21    21    22   ar
    22    22    23   ar
    23    23    24    2
    24    18    25    1
    25    25    26   ar
    26    26    27   ar
    27    27    28   ar
    28    28    29   ar
    29    29    30   ar
    30    30    31   ar
    31    31    32   ar
    32    32    33   ar
    33    24     1    1
    34    33    25   ar
    35    23     3   ar
    36    33    29   ar
    37    12     4   ar
    38    22    13   ar
    39    11     7   ar
    40    21    16   ar
    41     1    34    1
    42     1    35    1
    43     2    36    1
    44     5    37    1
    45     6    38    1
    46     8    39    1
    47    10    40    1
    48    14    41    1
    49    15    42    1
    50    17    43    1
    51    19    44    1
    52    24    45    1
    53    27    46    1
    54    28    47    1
