@<TRIPOS>MOLECULE
*****
 45 51 0 0 0
SMALL
GASTEIGER

@<TRIPOS>ATOM
      1 SI         -1.8726    1.4618    3.7951 Si      1  UNL1        0.0000
      2 C          -2.9880    0.9799    2.3961 C.2     1  UNL1        0.0000
      3 C          -2.2907    0.5839    1.3107 C.ar    1  UNL1        0.0000
      4 C          -2.9025    0.2128    0.0363 C.ar    1  UNL1        0.0000
      5 C          -2.1035   -0.1091   -1.0013 C.ar    1  UNL1        0.0000
      6 C          -0.6268   -0.1405   -0.8958 C.ar    1  UNL1        0.0000
      7 C           0.1038   -0.4957   -2.0320 C.ar    1  UNL1        0.0000
      8 C           1.4956   -0.5884   -1.9891 C.ar    1  UNL1        0.0000
      9 C           2.1725   -0.3542   -0.7787 C.ar    1  UNL1        0.0000
     10 C           1.4343    0.0021    0.3676 C.ar    1  UNL1        0.0000
     11 N           2.3490    0.1091    1.4061 N.ar    1  UNL1        0.0000
     12 C           3.6425   -0.1013    0.9855 C.ar    1  UNL1        0.0000
     13 C           4.8789   -0.0741    1.6876 C.ar    1  UNL1        0.0000
     14 C           6.0961   -0.3414    1.0209 C.ar    1  UNL1        0.0000
     15 C           5.9083   -0.6188   -0.3271 C.ar    1  UNL1        0.0000
     16 C           6.8912   -0.9193   -1.2387 C.ar    1  UNL1        0.0000
     17 O           6.3360   -1.1372   -2.4777 O.2     1  UNL1        0.0000
     18 C           4.9760   -0.9735   -2.3572 C.ar    1  UNL1        0.0000
     19 C           4.7141   -0.6609   -1.0612 C.ar    1  UNL1        0.0000
     20 C           3.5087   -0.3839   -0.3603 C.ar    1  UNL1        0.0000
     21 C           0.0293    0.1566    0.3308 C.ar    1  UNL1        0.0000
     22 C          -0.8076    0.5887    1.4805 C.ar    1  UNL1        0.0000
     23 C          -0.4136    1.0513    2.6871 C.2     1  UNL1        0.0000
     24 C          -4.3537    0.1891   -0.2105 C.ar    1  UNL1        0.0000
     25 C          -5.0865   -0.9952   -0.1065 C.ar    1  UNL1        0.0000
     26 C          -6.4597   -0.9767   -0.3384 C.ar    1  UNL1        0.0000
     27 C          -7.0557    0.2313   -0.6653 C.ar    1  UNL1        0.0000
     28 N          -6.3829    1.3976   -0.7720 N.ar    1  UNL1        0.0000
     29 C          -5.0483    1.3494   -0.5418 C.ar    1  UNL1        0.0000
     30 H          -1.9564    0.5400    4.9532 H       1  UNL1        0.0000
     31 H          -1.9297    2.9070    4.1184 H       1  UNL1        0.0000
     32 H          -4.0597    1.0619    2.4907 H       1  UNL1        0.0000
     33 H          -2.5287   -0.3758   -1.9657 H       1  UNL1        0.0000
     34 H          -0.4011   -0.7098   -2.9714 H       1  UNL1        0.0000
     35 H           2.0388   -0.8647   -2.8869 H       1  UNL1        0.0000
     36 H           2.1069    0.2836    2.3657 H       1  UNL1        0.0000
     37 H           4.8946    0.1546    2.7511 H       1  UNL1        0.0000
     38 H           7.0534   -0.3278    1.5246 H       1  UNL1        0.0000
     39 H           7.9664   -1.0178   -1.1938 H       1  UNL1        0.0000
     40 H           4.4054   -1.1147   -3.2620 H       1  UNL1        0.0000
     41 H           0.5680    1.2322    3.0763 H       1  UNL1        0.0000
     42 H          -4.5930   -1.9272    0.1567 H       1  UNL1        0.0000
     43 H          -7.0506   -1.8826   -0.2645 H       1  UNL1        0.0000
     44 H          -8.1235    0.2947   -0.8549 H       1  UNL1        0.0000
     45 H          -4.5351    2.3032   -0.6329 H       1  UNL1        0.0000
@<TRIPOS>BOND
     1     1     2    1
     2     2     3    2
     3     3     4   ar
     4     4     5   ar
     5     5     6   ar
     6     6     7   ar
     7     7     8   ar
     8     8     9   ar
     9     9    10   ar
    10    10    11   ar
    11    11    12   ar
    12    12    13   ar
    13    13    14   ar
    14    14    15   ar
    15    15    16   ar
    16    16    17   ar
    17    17    18   ar
    18    18    19   ar
    19    19    20   ar
    20    10    21   ar
    21    21    22   ar
    22    22    23    2
    23     4    24    1
    24    24    25   ar
    25    25    26   ar
    26    26    27   ar
    27    27    28   ar
    28    28    29   ar
    29    23     1    1
    30    29    24   ar
    31    22     3   ar
    32    21     6   ar
    33    20     9   ar
    34    20    12   ar
    35    19    15   ar
    36     1    30    1
    37     1    31    1
    38     2    32    1
    39     5    33    1
    40     7    34    1
    41     8    35    1
    42    11    36    1
    43    13    37    1
    44    14    38    1
    45    16    39    1
    46    18    40    1
    47    23    41    1
    48    25    42    1
    49    26    43    1
    50    27    44    1
    51    29    45    1
