@<TRIPOS>MOLECULE
*****
 50 57 0 0 0
SMALL
GASTEIGER

@<TRIPOS>ATOM
      1 C           2.1571   -4.0978   -0.8770 C.3     1  UNL1       -0.0148
      2 C           3.3933   -3.2590   -0.8874 C.2     1  UNL1       -0.0719
      3 C           3.0722   -1.9774   -0.6411 C.ar    1  UNL1       -0.0135
      4 C           3.9342   -0.7922   -0.6432 C.ar    1  UNL1       -0.0099
      5 C           5.2703   -0.8582   -1.0793 C.ar    1  UNL1       -0.0534
      6 C           6.0093    0.3030   -1.2810 C.ar    1  UNL1       -0.0611
      7 C           5.4031    1.5355   -1.0944 C.ar    1  UNL1       -0.0611
      8 C           4.0792    1.6025   -0.6472 C.ar    1  UNL1       -0.0534
      9 C           3.3311    0.4507   -0.3229 C.ar    1  UNL1       -0.0090
     10 C           1.9082    0.5264    0.2087 C.ar    1  UNL1       -0.0016
     11 C           1.4046    1.6716    0.9456 C.ar    1  UNL1       -0.0090
     12 C           2.2250    2.6476    1.5742 C.ar    1  UNL1       -0.0534
     13 C           1.7143    3.7731    2.2271 C.ar    1  UNL1       -0.0611
     14 C           0.3469    3.9584    2.3022 C.ar    1  UNL1       -0.0611
     15 C          -0.4996    2.9933    1.7662 C.ar    1  UNL1       -0.0534
     16 C           0.0047    1.8387    1.1227 C.ar    1  UNL1       -0.0098
     17 C          -0.8424    0.8224    0.6739 C.ar    1  UNL1       -0.0129
     18 C          -2.3027    0.7453    0.7123 C.2     1  UNL1       -0.0491
     19 C          -2.6977   -0.4500    0.2387 C.2     1  UNL1       -0.0276
     20 C          -1.4960   -1.3021   -0.1190 C.3     1  UNL1       -0.0001
     21 C          -0.3431   -0.3784    0.1498 C.ar    1  UNL1       -0.0270
     22 C           1.0222   -0.5710   -0.0483 C.ar    1  UNL1       -0.0052
     23 C           1.6314   -1.8611   -0.4377 C.ar    1  UNL1       -0.0132
     24 C           1.0921   -3.0861   -0.5789 C.2     1  UNL1       -0.0719
     25 C          -4.0682   -0.8107    0.1669 C.ar    1  UNL1        0.0300
     26 S          -4.6378   -2.3677    0.6656 S.2     1  UNL1       -0.0952
     27 C          -6.2755   -2.0087    0.2820 C.ar    1  UNL1       -0.0155
     28 C          -6.3176   -0.7588   -0.2278 C.ar    1  UNL1       -0.0032
     29 C          -7.3728    0.0390   -0.7299 C.ar    1  UNL1       -0.0465
     30 C          -6.9297    1.2867   -1.1813 C.ar    1  UNL1       -0.0231
     31 S          -5.2058    1.5990   -1.0424 S.2     1  UNL1       -0.0955
     32 C          -5.1118   -0.0604   -0.3179 C.ar    1  UNL1        0.0338
     33 H           1.9905   -4.5712   -1.8489 H       1  UNL1        0.0350
     34 H           2.2046   -4.8629   -0.0966 H       1  UNL1        0.0350
     35 H           4.3746   -3.6531   -1.0978 H       1  UNL1        0.0581
     36 H           5.7366   -1.8122   -1.3071 H       1  UNL1        0.0624
     37 H           7.0358    0.2440   -1.6318 H       1  UNL1        0.0618
     38 H           5.9487    2.4505   -1.3103 H       1  UNL1        0.0618
     39 H           3.6302    2.5912   -0.5876 H       1  UNL1        0.0624
     40 H           3.3048    2.5189    1.6060 H       1  UNL1        0.0624
     41 H           2.3911    4.4910    2.6826 H       1  UNL1        0.0618
     42 H          -0.0643    4.8296    2.8041 H       1  UNL1        0.0618
     43 H          -1.5703    3.1425    1.8806 H       1  UNL1        0.0624
     44 H          -2.9362    1.5384    1.0756 H       1  UNL1        0.0627
     45 H          -1.5323   -1.5938   -1.1733 H       1  UNL1        0.0362
     46 H          -1.4575   -2.1766    0.5371 H       1  UNL1        0.0362
     47 H           0.0625   -3.3755   -0.4663 H       1  UNL1        0.0581
     48 H          -7.0672   -2.7269    0.4413 H       1  UNL1        0.0700
     49 H          -8.4129   -0.2595   -0.7767 H       1  UNL1        0.0629
     50 H          -7.5372    2.0722   -1.6099 H       1  UNL1        0.0694
@<TRIPOS>BOND
     1     1     2    1
     2     2     3    2
     3     3     4   ar
     4     4     5   ar
     5     5     6   ar
     6     6     7   ar
     7     7     8   ar
     8     8     9   ar
     9     9    10   ar
    10    10    11   ar
    11    11    12   ar
    12    12    13   ar
    13    13    14   ar
    14    14    15   ar
    15    15    16   ar
    16    16    17   ar
    17    17    18    1
    18    18    19    2
    19    19    20    1
    20    20    21    1
    21    21    22   ar
    22    22    23   ar
    23    23    24    2
    24    19    25    1
    25    25    26   ar
    26    26    27   ar
    27    27    28   ar
    28    28    29   ar
    29    29    30   ar
    30    30    31   ar
    31    31    32   ar
    32    24     1    1
    33    32    25   ar
    34    23     3   ar
    35    32    28   ar
    36     9     4   ar
    37    22    10   ar
    38    16    11   ar
    39    21    17   ar
    40     1    33    1
    41     1    34    1
    42     2    35    1
    43     5    36    1
    44     6    37    1
    45     7    38    1
    46     8    39    1
    47    12    40    1
    48    13    41    1
    49    14    42    1
    50    15    43    1
    51    18    44    1
    52    20    45    1
    53    20    46    1
    54    24    47    1
    55    27    48    1
    56    29    49    1
    57    30    50    1
