@<TRIPOS>MOLECULE
*****
 44 50 0 0 0
SMALL
GASTEIGER

@<TRIPOS>ATOM
      1 C          -2.2331   -3.9021    0.4988 C.3     1  UNL1       -0.0148
      2 C          -3.3601   -2.9476    0.7232 C.2     1  UNL1       -0.0719
      3 C          -2.9125   -1.6866    0.5985 C.ar    1  UNL1       -0.0120
      4 C          -3.6934   -0.4514    0.5627 C.ar    1  UNL1        0.0084
      5 C          -5.0528   -0.3891    0.8901 C.ar    1  UNL1       -0.0505
      6 C          -5.7277    0.8213    0.8017 C.ar    1  UNL1       -0.0430
      7 C          -5.0170    1.9297    0.3877 C.ar    1  UNL1        0.0283
      8 N          -3.7050    1.9056    0.0693 N.ar    1  UNL1       -0.2543
      9 C          -3.0376    0.7233    0.1510 C.ar    1  UNL1        0.0799
     10 C          -1.5796    0.7268   -0.1308 C.ar    1  UNL1        0.0184
     11 C          -0.8276    1.8164   -0.6026 C.ar    1  UNL1        0.0098
     12 C          -1.2806    3.0463   -1.0231 C.ar    1  UNL1        0.0101
     13 N          -0.1951    3.7965   -1.4068 N.ar    1  UNL1       -0.3659
     14 C           0.9580    3.0686   -1.2402 C.ar    1  UNL1        0.0100
     15 C           0.5946    1.8351   -0.7495 C.ar    1  UNL1        0.0078
     16 C           1.4677    0.7822   -0.4020 C.ar    1  UNL1       -0.0075
     17 C           2.8839    0.8488   -0.4908 C.ar    1  UNL1       -0.0451
     18 C           3.6760   -0.2145   -0.0588 C.ar    1  UNL1       -0.0092
     19 C           3.0292   -1.3226    0.4888 C.ar    1  UNL1       -0.0529
     20 C           1.6252   -1.3852    0.5639 C.ar    1  UNL1       -0.0528
     21 C           0.7679   -0.3669    0.0822 C.ar    1  UNL1       -0.0089
     22 C          -0.7137   -0.4201    0.1063 C.ar    1  UNL1       -0.0001
     23 C          -1.4718   -1.6902    0.3409 C.ar    1  UNL1       -0.0128
     24 C          -1.0913   -2.9757    0.2099 C.2     1  UNL1       -0.0719
     25 C           5.1366   -0.1305   -0.1397 C.ar    1  UNL1        0.0388
     26 C           5.9759    0.9455    0.0983 C.ar    1  UNL1        0.0425
     27 N           7.3278    0.7225   -0.0861 N.ar    1  UNL1       -0.2551
     28 C           7.5062   -0.5218   -0.4673 C.ar    1  UNL1        0.0652
     29 S           6.0936   -1.4776   -0.6240 S.2     1  UNL1       -0.0755
     30 H          -2.0384   -4.5100    1.3869 H       1  UNL1        0.0350
     31 H          -2.4354   -4.5525   -0.3573 H       1  UNL1        0.0350
     32 H          -4.3810   -3.2616    0.8737 H       1  UNL1        0.0581
     33 H          -5.5931   -1.2725    1.2153 H       1  UNL1        0.0625
     34 H          -6.7802    0.8967    1.0493 H       1  UNL1        0.0633
     35 H          -5.4945    2.9013    0.3010 H       1  UNL1        0.0830
     36 H          -2.2730    3.4690   -1.0947 H       1  UNL1        0.0813
     37 H          -0.2427    4.7449   -1.7558 H       1  UNL1        0.1648
     38 H           1.9149    3.5068   -1.4861 H       1  UNL1        0.0813
     39 H           3.3524    1.7405   -0.8980 H       1  UNL1        0.0630
     40 H           3.6023   -2.1537    0.8952 H       1  UNL1        0.0624
     41 H           1.2162   -2.2505    1.0768 H       1  UNL1        0.0624
     42 H          -0.1291   -3.3466   -0.1028 H       1  UNL1        0.0581
     43 H           5.6497    1.9281    0.4184 H       1  UNL1        0.0841
     44 H           8.4883   -0.9267   -0.6735 H       1  UNL1        0.0907
@<TRIPOS>BOND
     1     1     2    1
     2     2     3    2
     3     3     4   ar
     4     4     5   ar
     5     5     6   ar
     6     6     7   ar
     7     7     8   ar
     8     8     9   ar
     9     9    10   ar
    10    10    11   ar
    11    11    12   ar
    12    12    13   ar
    13    13    14   ar
    14    14    15   ar
    15    15    16   ar
    16    16    17   ar
    17    17    18   ar
    18    18    19   ar
    19    19    20   ar
    20    20    21   ar
    21    21    22   ar
    22    22    23   ar
    23    23    24    2
    24    18    25    1
    25    25    26   ar
    26    26    27   ar
    27    27    28   ar
    28    28    29   ar
    29    24     1    1
    30    29    25   ar
    31    23     3   ar
    32     9     4   ar
    33    22    10   ar
    34    15    11   ar
    35    21    16   ar
    36     1    30    1
    37     1    31    1
    38     2    32    1
    39     5    33    1
    40     6    34    1
    41     7    35    1
    42    12    36    1
    43    13    37    1
    44    14    38    1
    45    17    39    1
    46    19    40    1
    47    20    41    1
    48    24    42    1
    49    26    43    1
    50    28    44    1
