@<TRIPOS>MOLECULE
*****
 46 52 0 0 0
SMALL
GASTEIGER

@<TRIPOS>ATOM
      1 C          -0.7863    3.7516   -1.5079 C.3     1  UNL1       -0.0148
      2 C          -2.2026    3.3348   -1.2636 C.2     1  UNL1       -0.0719
      3 C          -2.2256    2.0928   -0.7500 C.ar    1  UNL1       -0.0119
      4 C          -3.3660    1.2708   -0.3525 C.ar    1  UNL1        0.0084
      5 C          -4.6873    1.7252   -0.4721 C.ar    1  UNL1       -0.0505
      6 C          -5.7379    0.9094   -0.0816 C.ar    1  UNL1       -0.0430
      7 C          -5.4276   -0.3361    0.4164 C.ar    1  UNL1        0.0283
      8 N          -4.1653   -0.8016    0.5436 N.ar    1  UNL1       -0.2543
      9 C          -3.1221   -0.0201    0.1675 C.ar    1  UNL1        0.0799
     10 C          -1.7170   -0.5876    0.3296 C.ar    1  UNL1        0.0199
     11 C          -1.4256   -1.9109    0.8600 C.ar    1  UNL1       -0.0073
     12 C          -2.3685   -2.8810    1.3075 C.ar    1  UNL1       -0.0534
     13 C          -2.0144   -4.1422    1.8093 C.ar    1  UNL1       -0.0611
     14 C          -0.6846   -4.5088    1.8930 C.ar    1  UNL1       -0.0611
     15 C           0.2881   -3.6125    1.4743 C.ar    1  UNL1       -0.0533
     16 C          -0.0668   -2.3390    0.9675 C.ar    1  UNL1       -0.0064
     17 C           0.9942   -1.4935    0.5651 C.ar    1  UNL1        0.0291
     18 C           2.4203   -1.5859    0.5308 C.ar    1  UNL1       -0.0074
     19 C           2.8964   -0.3993    0.0174 C.ar    1  UNL1        0.1377
     20 O           1.8412    0.4150   -0.2647 O.2     1  UNL1       -0.4541
     21 C           0.6860   -0.2390    0.0635 C.ar    1  UNL1        0.1446
     22 C          -0.6189    0.2500   -0.0718 C.ar    1  UNL1        0.0351
     23 C          -0.8669    1.5945   -0.6137 C.ar    1  UNL1       -0.0098
     24 C          -0.0231    2.5472   -1.0499 C.2     1  UNL1       -0.0718
     25 C           4.2227    0.1324   -0.2691 C.ar    1  UNL1        0.0354
     26 C           4.4157    1.4100   -0.8052 C.ar    1  UNL1       -0.0482
     27 C           5.7039    1.8780   -1.0636 C.ar    1  UNL1       -0.0429
     28 C           6.7742    1.0491   -0.7766 C.ar    1  UNL1        0.0276
     29 N           6.6404   -0.1894   -0.2597 N.ar    1  UNL1       -0.2626
     30 C           5.3734   -0.6136   -0.0205 C.ar    1  UNL1        0.0382
     31 H          -0.5254    4.6338   -0.9162 H       1  UNL1        0.0350
     32 H          -0.6097    3.9519   -2.5686 H       1  UNL1        0.0350
     33 H          -3.0506    3.9648   -1.4802 H       1  UNL1        0.0581
     34 H          -4.9090    2.7115   -0.8677 H       1  UNL1        0.0625
     35 H          -6.7674    1.2375   -0.1641 H       1  UNL1        0.0633
     36 H          -6.2064   -1.0212    0.7390 H       1  UNL1        0.0830
     37 H          -3.4343   -2.6861    1.2811 H       1  UNL1        0.0624
     38 H          -2.7929   -4.8290    2.1318 H       1  UNL1        0.0618
     39 H          -0.4057   -5.4841    2.2809 H       1  UNL1        0.0618
     40 H           1.3278   -3.9205    1.5485 H       1  UNL1        0.0624
     41 H           3.0220   -2.4256    0.8464 H       1  UNL1        0.0662
     42 H           1.0525    2.4965   -1.0840 H       1  UNL1        0.0581
     43 H           3.5670    2.0517   -1.0263 H       1  UNL1        0.0626
     44 H           5.8650    2.8665   -1.4789 H       1  UNL1        0.0633
     45 H           7.7961    1.3683   -0.9602 H       1  UNL1        0.0829
     46 H           5.3210   -1.6161    0.3951 H       1  UNL1        0.0837
@<TRIPOS>BOND
     1     1     2    1
     2     2     3    2
     3     3     4   ar
     4     4     5   ar
     5     5     6   ar
     6     6     7   ar
     7     7     8   ar
     8     8     9   ar
     9     9    10   ar
    10    10    11   ar
    11    11    12   ar
    12    12    13   ar
    13    13    14   ar
    14    14    15   ar
    15    15    16   ar
    16    16    17   ar
    17    17    18   ar
    18    18    19   ar
    19    19    20   ar
    20    20    21   ar
    21    21    22   ar
    22    22    23   ar
    23    23    24    2
    24    19    25    1
    25    25    26   ar
    26    26    27   ar
    27    27    28   ar
    28    28    29   ar
    29    29    30   ar
    30    24     1    1
    31    30    25   ar
    32    23     3   ar
    33     9     4   ar
    34    22    10   ar
    35    16    11   ar
    36    21    17   ar
    37     1    31    1
    38     1    32    1
    39     2    33    1
    40     5    34    1
    41     6    35    1
    42     7    36    1
    43    12    37    1
    44    13    38    1
    45    14    39    1
    46    15    40    1
    47    18    41    1
    48    24    42    1
    49    26    43    1
    50    27    44    1
    51    28    45    1
    52    30    46    1
