@<TRIPOS>MOLECULE
*****
 46 52 0 0 0
SMALL
GASTEIGER

@<TRIPOS>ATOM
      1 C          -1.9446    3.2854    1.6069 C.3     1  UNL1       -0.0148
      2 C          -3.2392    2.5677    1.4104 C.2     1  UNL1       -0.0719
      3 C          -3.0102    1.3634    0.8596 C.ar    1  UNL1       -0.0120
      4 C          -3.9792    0.3305    0.4946 C.ar    1  UNL1        0.0084
      5 C          -5.3590    0.4788    0.6870 C.ar    1  UNL1       -0.0505
      6 C          -6.2230   -0.5429    0.3173 C.ar    1  UNL1       -0.0430
      7 C          -5.6748   -1.6815   -0.2338 C.ar    1  UNL1        0.0283
      8 N          -4.3505   -1.8562   -0.4327 N.ar    1  UNL1       -0.2543
      9 C          -3.4959   -0.8627   -0.0746 C.ar    1  UNL1        0.0798
     10 C          -2.0384   -1.0808   -0.3049 C.ar    1  UNL1        0.0172
     11 C          -1.4533   -2.2568   -0.8763 C.ar    1  UNL1       -0.0005
     12 C          -2.1183   -3.3831   -1.3105 C.ar    1  UNL1       -0.0159
     13 S          -1.0659   -4.5897   -1.9384 S.2     1  UNL1       -0.1038
     14 C           0.3191   -3.6290   -1.6436 C.ar    1  UNL1       -0.0160
     15 C          -0.0241   -2.4240   -1.0818 C.ar    1  UNL1       -0.0028
     16 C           0.8969   -1.4508   -0.7386 C.ar    1  UNL1       -0.0124
     17 C           2.3343   -1.4055   -0.8515 C.2     1  UNL1       -0.0497
     18 C           2.7290   -0.2139   -0.3637 C.2     1  UNL1       -0.0353
     19 C           1.5396    0.6157    0.1109 C.3     1  UNL1       -0.0007
     20 C           0.3589   -0.2805   -0.1741 C.ar    1  UNL1       -0.0269
     21 C          -1.0388   -0.0702    0.0474 C.ar    1  UNL1       -0.0037
     22 C          -1.5749    1.1804    0.6469 C.ar    1  UNL1       -0.0131
     23 C          -0.9528    2.2932    1.0792 C.2     1  UNL1       -0.0719
     24 C           4.1153    0.2873   -0.2713 C.ar    1  UNL1       -0.0215
     25 C           4.3895    1.5607    0.2545 C.ar    1  UNL1       -0.0543
     26 C           5.6997    2.0438    0.3460 C.ar    1  UNL1       -0.0612
     27 C           6.7645    1.2615   -0.0873 C.ar    1  UNL1       -0.0617
     28 C           6.5188   -0.0029   -0.6113 C.ar    1  UNL1       -0.0612
     29 C           5.2076   -0.4837   -0.7018 C.ar    1  UNL1       -0.0543
     30 H          -1.9157    4.2159    1.0328 H       1  UNL1        0.0350
     31 H          -1.7655    3.4980    2.6648 H       1  UNL1        0.0350
     32 H          -4.1948    2.9871    1.6829 H       1  UNL1        0.0581
     33 H          -5.7724    1.3829    1.1226 H       1  UNL1        0.0625
     34 H          -7.2940   -0.4516    0.4562 H       1  UNL1        0.0633
     35 H          -6.3018   -2.5135   -0.5418 H       1  UNL1        0.0830
     36 H          -3.1736   -3.6062   -1.3113 H       1  UNL1        0.0700
     37 H           1.2981   -4.0078   -1.9006 H       1  UNL1        0.0700
     38 H           2.9355   -2.2006   -1.2572 H       1  UNL1        0.0627
     39 H           1.4670    1.5400   -0.4712 H       1  UNL1        0.0362
     40 H           1.6203    0.8123    1.1847 H       1  UNL1        0.0362
     41 H           0.0999    2.5110    1.0781 H       1  UNL1        0.0581
     42 H           3.5902    2.2077    0.6054 H       1  UNL1        0.0624
     43 H           5.8848    3.0331    0.7568 H       1  UNL1        0.0618
     44 H           7.7823    1.6353   -0.0168 H       1  UNL1        0.0618
     45 H           7.3458   -0.6206   -0.9519 H       1  UNL1        0.0618
     46 H           5.0633   -1.4769   -1.1174 H       1  UNL1        0.0624
@<TRIPOS>BOND
     1     1     2    1
     2     2     3    2
     3     3     4   ar
     4     4     5   ar
     5     5     6   ar
     6     6     7   ar
     7     7     8   ar
     8     8     9   ar
     9     9    10   ar
    10    10    11   ar
    11    11    12   ar
    12    12    13   ar
    13    13    14   ar
    14    14    15   ar
    15    15    16   ar
    16    16    17    1
    17    17    18    2
    18    18    19    1
    19    19    20    1
    20    20    21   ar
    21    21    22   ar
    22    22    23    2
    23    18    24    1
    24    24    25   ar
    25    25    26   ar
    26    26    27   ar
    27    27    28   ar
    28    28    29   ar
    29    23     1    1
    30    29    24   ar
    31    22     3   ar
    32     9     4   ar
    33    21    10   ar
    34    15    11   ar
    35    20    16   ar
    36     1    30    1
    37     1    31    1
    38     2    32    1
    39     5    33    1
    40     6    34    1
    41     7    35    1
    42    12    36    1
    43    14    37    1
    44    17    38    1
    45    19    39    1
    46    19    40    1
    47    23    41    1
    48    25    42    1
    49    26    43    1
    50    27    44    1
    51    28    45    1
    52    29    46    1
