@<TRIPOS>MOLECULE
*****
 44 50 0 0 0
SMALL
GASTEIGER

@<TRIPOS>ATOM
      1 C          -3.7393   -3.3697   -1.0590 C.3     1  UNL1       -0.0148
      2 C          -4.6941   -2.3652   -0.4847 C.2     1  UNL1       -0.0719
      3 C          -4.0185   -1.2714   -0.0947 C.ar    1  UNL1       -0.0120
      4 C          -4.5065   -0.0335    0.5185 C.ar    1  UNL1        0.0084
      5 C          -5.8508    0.2103    0.8105 C.ar    1  UNL1       -0.0505
      6 C          -6.2191    1.4181    1.3939 C.ar    1  UNL1       -0.0430
      7 C          -5.2286    2.3445    1.6667 C.ar    1  UNL1        0.0283
      8 N          -3.9194    2.1482    1.4005 N.ar    1  UNL1       -0.2543
      9 C          -3.5602    0.9647    0.8292 C.ar    1  UNL1        0.0792
     10 C          -2.1043    0.7828    0.5492 C.ar    1  UNL1        0.0093
     11 C          -1.1709    1.7891    0.8655 C.ar    1  UNL1       -0.0428
     12 C           0.2028    1.6315    0.6071 C.ar    1  UNL1        0.0009
     13 C           1.1469    2.6121    0.9098 C.ar    1  UNL1        0.0360
     14 N           2.4749    2.4974    0.6761 N.ar    1  UNL1       -0.2538
     15 C           2.9130    1.3475    0.1097 C.ar    1  UNL1        0.0802
     16 C           2.0466    0.3118   -0.2297 C.ar    1  UNL1       -0.0274
     17 C           0.6729    0.4474    0.0196 C.ar    1  UNL1       -0.0138
     18 C          -0.2443   -0.5663   -0.3018 C.ar    1  UNL1       -0.0456
     19 C          -1.6165   -0.4114   -0.0450 C.ar    1  UNL1       -0.0078
     20 C          -2.5988   -1.4583   -0.3721 C.ar    1  UNL1       -0.0134
     21 C          -2.4194   -2.6676   -0.9304 C.2     1  UNL1       -0.0719
     22 C           4.3620    1.2669   -0.1221 C.ar    1  UNL1        0.0650
     23 S           5.2570    2.7133   -0.4638 S.2     1  UNL1       -0.0908
     24 C           6.7448    1.8805   -0.6095 C.ar    1  UNL1        0.0038
     25 C           6.5818    0.5362   -0.4099 C.ar    1  UNL1        0.0968
     26 N           7.6174   -0.3466   -0.4710 N.ar    1  UNL1       -0.2514
     27 C           7.1858   -1.6130   -0.2277 C.ar    1  UNL1        0.0464
     28 C           5.8610   -1.9732    0.0428 C.ar    1  UNL1        0.0464
     29 N           4.8084   -1.1119    0.1012 N.ar    1  UNL1       -0.2507
     30 C           5.2096    0.1749   -0.1327 C.ar    1  UNL1        0.1054
     31 H          -3.9727   -3.5820   -2.1064 H       1  UNL1        0.0350
     32 H          -3.7497   -4.2989   -0.4819 H       1  UNL1        0.0350
     33 H          -5.7577   -2.5288   -0.4109 H       1  UNL1        0.0581
     34 H          -6.6158   -0.5274    0.5899 H       1  UNL1        0.0625
     35 H          -7.2556    1.6315    1.6301 H       1  UNL1        0.0633
     36 H          -5.4686    3.3014    2.1218 H       1  UNL1        0.0830
     37 H          -1.5223    2.7140    1.3222 H       1  UNL1        0.0631
     38 H           0.8521    3.5539    1.3659 H       1  UNL1        0.0836
     39 H           2.4291   -0.5942   -0.6891 H       1  UNL1        0.0645
     40 H           0.1221   -1.4837   -0.7557 H       1  UNL1        0.0630
     41 H          -1.4847   -3.1009   -1.2498 H       1  UNL1        0.0581
     42 H           7.6589    2.4116   -0.8309 H       1  UNL1        0.0715
     43 H           7.9626   -2.3721   -0.2545 H       1  UNL1        0.0845
     44 H           5.6083   -3.0137    0.2276 H       1  UNL1        0.0845
@<TRIPOS>BOND
     1     1     2    1
     2     2     3    2
     3     3     4   ar
     4     4     5   ar
     5     5     6   ar
     6     6     7   ar
     7     7     8   ar
     8     8     9   ar
     9     9    10   ar
    10    10    11   ar
    11    11    12   ar
    12    12    13   ar
    13    13    14   ar
    14    14    15   ar
    15    15    16   ar
    16    16    17   ar
    17    17    18   ar
    18    18    19   ar
    19    19    20   ar
    20    20    21    2
    21    15    22    1
    22    22    23   ar
    23    23    24   ar
    24    24    25   ar
    25    25    26   ar
    26    26    27   ar
    27    27    28   ar
    28    28    29   ar
    29    29    30   ar
    30    21     1    1
    31    30    22   ar
    32    20     3   ar
    33    30    25   ar
    34     9     4   ar
    35    19    10   ar
    36    17    12   ar
    37     1    31    1
    38     1    32    1
    39     2    33    1
    40     5    34    1
    41     6    35    1
    42     7    36    1
    43    11    37    1
    44    13    38    1
    45    16    39    1
    46    18    40    1
    47    21    41    1
    48    24    42    1
    49    27    43    1
    50    28    44    1
