@<TRIPOS>MOLECULE
*****
 47 53 0 0 0
SMALL
GASTEIGER

@<TRIPOS>ATOM
      1 C           1.7917    2.5134   -2.3262 C.3     1  UNL1        0.0000
      2 C           3.1949    2.2712   -1.8741 C.2     1  UNL1        0.0000
      3 C           3.2090    1.2938   -0.9526 C.ar    1  UNL1        0.0000
      4 C           4.3499    0.7496   -0.2119 C.ar    1  UNL1        0.0000
      5 C           5.6689    1.1761   -0.3965 C.ar    1  UNL1        0.0000
      6 C           6.6901    0.6089    0.3583 C.ar    1  UNL1        0.0000
      7 C           6.3583   -0.3692    1.2767 C.ar    1  UNL1        0.0000
      8 N           5.0993   -0.8089    1.4841 N.ar    1  UNL1        0.0000
      9 C           4.0987   -0.2530    0.7428 C.ar    1  UNL1        0.0000
     10 C           2.7213   -0.7754    0.9925 C.ar    1  UNL1        0.0000
     11 C           2.5064   -1.7781    1.9536 C.ar    1  UNL1        0.0000
     12 C           1.2367   -2.3045    2.2037 C.ar    1  UNL1        0.0000
     13 C           0.1378   -1.8350    1.4675 C.ar    1  UNL1        0.0000
     14 C          -1.2448   -2.1702    1.4792 C.ar    1  UNL1        0.0000
     15 C          -1.8765   -1.3922    0.5354 C.ar    1  UNL1        0.0000
     16 N          -0.9073   -0.6215   -0.0578 N.ar    1  UNL1        0.0000
     17 C           0.3328   -0.8376    0.5042 C.ar    1  UNL1        0.0000
     18 C           1.6046   -0.2734    0.2554 C.ar    1  UNL1        0.0000
     19 C           1.8451    0.8050   -0.7256 C.ar    1  UNL1        0.0000
     20 C           1.0176    1.5198   -1.5101 C.2     1  UNL1        0.0000
     21 C          -3.2179   -1.2743    0.0719 C.ar    1  UNL1        0.0000
     22 C          -3.8450   -2.4192   -0.2942 C.ar    1  UNL1        0.0000
     23 C          -5.2034   -2.4539   -0.8329 C.ar    1  UNL1        0.0000
     24 C          -5.9322   -1.3369   -1.0077 C.ar    1  UNL1        0.0000
     25 C          -5.3543   -0.0644   -0.6303 C.ar    1  UNL1        0.0000
     26 C          -5.9795    1.1240   -0.7207 C.2     1  UNL1        0.0000
     27 SI         -4.8876    2.4964   -0.0738 Si      1  UNL1        0.0000
     28 C          -3.5705    1.2156    0.2847 C.2     1  UNL1        0.0000
     29 C          -3.9791   -0.0208   -0.0715 C.ar    1  UNL1        0.0000
     30 H           1.6798    2.3174   -3.3965 H       1  UNL1        0.0000
     31 H           1.4757    3.5366   -2.1031 H       1  UNL1        0.0000
     32 H           4.0424    2.8276   -2.2421 H       1  UNL1        0.0000
     33 H           5.9141    1.9460   -1.1211 H       1  UNL1        0.0000
     34 H           7.7198    0.9237    0.2326 H       1  UNL1        0.0000
     35 H           7.1195   -0.8422    1.8906 H       1  UNL1        0.0000
     36 H           3.3453   -2.1679    2.5286 H       1  UNL1        0.0000
     37 H           1.1085   -3.0775    2.9559 H       1  UNL1        0.0000
     38 H          -1.7233   -2.9011    2.1178 H       1  UNL1        0.0000
     39 H          -1.0964    0.0043   -0.8222 H       1  UNL1        0.0000
     40 H          -0.0515    1.4590   -1.5891 H       1  UNL1        0.0000
     41 H          -3.3427   -3.3813   -0.2257 H       1  UNL1        0.0000
     42 H          -5.6088   -3.4253   -1.0989 H       1  UNL1        0.0000
     43 H          -6.9380   -1.3739   -1.4099 H       1  UNL1        0.0000
     44 H          -6.9762    1.3154   -1.0844 H       1  UNL1        0.0000
     45 H          -5.4268    3.1216    1.1574 H       1  UNL1        0.0000
     46 H          -4.4698    3.4361   -1.1425 H       1  UNL1        0.0000
     47 H          -2.6365    1.4962    0.7441 H       1  UNL1        0.0000
@<TRIPOS>BOND
     1     1     2    1
     2     2     3    2
     3     3     4   ar
     4     4     5   ar
     5     5     6   ar
     6     6     7   ar
     7     7     8   ar
     8     8     9   ar
     9     9    10   ar
    10    10    11   ar
    11    11    12   ar
    12    12    13   ar
    13    13    14   ar
    14    14    15   ar
    15    15    16   ar
    16    16    17   ar
    17    17    18   ar
    18    18    19   ar
    19    19    20    2
    20    15    21    1
    21    21    22   ar
    22    22    23   ar
    23    23    24   ar
    24    24    25   ar
    25    25    26    2
    26    26    27    1
    27    27    28    1
    28    28    29    2
    29    20     1    1
    30    29    21   ar
    31    19     3   ar
    32    29    25   ar
    33     9     4   ar
    34    18    10   ar
    35    17    13   ar
    36     1    30    1
    37     1    31    1
    38     2    32    1
    39     5    33    1
    40     6    34    1
    41     7    35    1
    42    11    36    1
    43    12    37    1
    44    14    38    1
    45    16    39    1
    46    20    40    1
    47    22    41    1
    48    23    42    1
    49    24    43    1
    50    26    44    1
    51    27    45    1
    52    27    46    1
    53    28    47    1
