@<TRIPOS>MOLECULE
*****
 43 49 0 0 0
SMALL
GASTEIGER

@<TRIPOS>ATOM
      1 C          -2.9197   -3.2319   -0.9684 C.3     1  UNL1       -0.0148
      2 C          -4.0927   -2.3651   -0.6322 C.2     1  UNL1       -0.0719
      3 C          -3.6604   -1.1587   -0.2283 C.ar    1  UNL1       -0.0120
      4 C          -4.4382    0.0026    0.1975 C.ar    1  UNL1        0.0084
      5 C          -5.8351    0.0282    0.2496 C.ar    1  UNL1       -0.0505
      6 C          -6.4879    1.1821    0.6690 C.ar    1  UNL1       -0.0430
      7 C          -5.7196    2.2750    1.0232 C.ar    1  UNL1        0.0283
      8 N          -4.3700    2.2890    0.9862 N.ar    1  UNL1       -0.2543
      9 C          -3.7310    1.1568    0.5748 C.ar    1  UNL1        0.0793
     10 C          -2.2380    1.2154    0.5487 C.ar    1  UNL1        0.0107
     11 C          -1.5766    2.3913    0.9347 C.ar    1  UNL1       -0.0513
     12 C          -0.1898    2.4744    0.9202 C.ar    1  UNL1       -0.0519
     13 C           0.5823    1.3810    0.5180 C.ar    1  UNL1        0.0016
     14 C           1.9882    1.4835    0.5093 C.ar    1  UNL1       -0.0428
     15 C           2.8165    0.4236    0.1169 C.ar    1  UNL1        0.0085
     16 C           2.1202   -0.7143   -0.2545 C.ar    1  UNL1        0.0365
     17 N           0.7651   -0.8515   -0.2594 N.ar    1  UNL1       -0.2537
     18 C          -0.0267    0.1752    0.1201 C.ar    1  UNL1        0.0793
     19 C          -1.4438    0.0985    0.1378 C.ar    1  UNL1        0.0175
     20 C          -2.1990   -1.1213   -0.2606 C.ar    1  UNL1       -0.0113
     21 C          -1.7653   -2.3209   -0.6890 C.2     1  UNL1       -0.0719
     22 C           4.2935    0.5345    0.1085 C.ar    1  UNL1        0.0351
     23 S           5.0906    2.0106    0.5942 S.2     1  UNL1       -0.0949
     24 C           6.6653    1.3995    0.3324 C.ar    1  UNL1       -0.0155
     25 C           6.5439    0.1299   -0.1031 C.ar    1  UNL1       -0.0032
     26 C           7.5159   -0.8297   -0.4662 C.ar    1  UNL1       -0.0465
     27 C           6.9458   -2.0391   -0.8666 C.ar    1  UNL1       -0.0231
     28 S           5.1966   -2.1152   -0.8373 S.2     1  UNL1       -0.0955
     29 C           5.2538   -0.3947   -0.2436 C.ar    1  UNL1        0.0341
     30 H          -2.8872   -4.1189   -0.3291 H       1  UNL1        0.0350
     31 H          -2.9395   -3.5342   -2.0194 H       1  UNL1        0.0350
     32 H          -5.1165   -2.6937   -0.7142 H       1  UNL1        0.0581
     33 H          -6.4229   -0.8396   -0.0323 H       1  UNL1        0.0625
     34 H          -7.5700    1.2262    0.7177 H       1  UNL1        0.0633
     35 H          -6.1822    3.1994    1.3573 H       1  UNL1        0.0830
     36 H          -2.1475    3.2625    1.2537 H       1  UNL1        0.0624
     37 H           0.2794    3.4068    1.2279 H       1  UNL1        0.0624
     38 H           2.4220    2.4304    0.8229 H       1  UNL1        0.0631
     39 H           2.6101   -1.6203   -0.5828 H       1  UNL1        0.0836
     40 H          -0.7394   -2.6251   -0.8260 H       1  UNL1        0.0581
     41 H           7.5489    1.9960    0.5107 H       1  UNL1        0.0700
     42 H           8.5875   -0.6718   -0.4457 H       1  UNL1        0.0629
     43 H           7.4734   -2.9262   -1.1904 H       1  UNL1        0.0694
@<TRIPOS>BOND
     1     1     2    1
     2     2     3    2
     3     3     4   ar
     4     4     5   ar
     5     5     6   ar
     6     6     7   ar
     7     7     8   ar
     8     8     9   ar
     9     9    10   ar
    10    10    11   ar
    11    11    12   ar
    12    12    13   ar
    13    13    14   ar
    14    14    15   ar
    15    15    16   ar
    16    16    17   ar
    17    17    18   ar
    18    18    19   ar
    19    19    20   ar
    20    20    21    2
    21    15    22    1
    22    22    23   ar
    23    23    24   ar
    24    24    25   ar
    25    25    26   ar
    26    26    27   ar
    27    27    28   ar
    28    28    29   ar
    29    21     1    1
    30    29    22   ar
    31    20     3   ar
    32    29    25   ar
    33     9     4   ar
    34    19    10   ar
    35    18    13   ar
    36     1    30    1
    37     1    31    1
    38     2    32    1
    39     5    33    1
    40     6    34    1
    41     7    35    1
    42    11    36    1
    43    12    37    1
    44    14    38    1
    45    16    39    1
    46    21    40    1
    47    24    41    1
    48    26    42    1
    49    27    43    1
