@<TRIPOS>MOLECULE
*****
 48 55 0 0 0
SMALL
GASTEIGER

@<TRIPOS>ATOM
      1 C           3.4249   -0.4453   -3.0858 C.3     1  UNL1       -0.0148
      2 C           4.5291   -0.3999   -2.0761 C.2     1  UNL1       -0.0719
      3 C           4.0083   -0.2017   -0.8539 C.ar    1  UNL1       -0.0120
      4 C           4.6999    0.1120    0.3959 C.ar    1  UNL1        0.0084
      5 C           6.0826    0.0275    0.5726 C.ar    1  UNL1       -0.0505
      6 C           6.6415    0.3995    1.7907 C.ar    1  UNL1       -0.0430
      7 C           5.7969    0.8479    2.7905 C.ar    1  UNL1        0.0283
      8 N           4.4557    0.9393    2.6583 N.ar    1  UNL1       -0.2543
      9 C           3.9107    0.5687    1.4673 C.ar    1  UNL1        0.0807
     10 C           2.4282    0.6190    1.3759 C.ar    1  UNL1        0.0273
     11 C           1.6604    1.1423    2.4086 C.ar    1  UNL1        0.0380
     12 N           0.3061    1.1834    2.4388 N.ar    1  UNL1       -0.2542
     13 C          -0.3787    0.5861    1.4630 C.ar    1  UNL1        0.0728
     14 C          -1.7903    0.6113    1.6204 C.ar    1  UNL1       -0.0268
     15 C          -2.7315   -0.0133    0.7734 C.ar    1  UNL1        0.0019
     16 C          -4.1605    0.0263    0.9573 C.ar    1  UNL1        0.0439
     17 S          -4.9451   -0.5507    2.3900 S.2     1  UNL1       -0.0939
     18 C          -6.5382   -0.1602    1.8056 C.ar    1  UNL1       -0.0145
     19 C          -6.3989    0.3897    0.5823 C.ar    1  UNL1        0.0073
     20 C          -7.1603    0.9440   -0.4758 C.ar    1  UNL1       -0.0361
     21 C          -6.2484    1.3383   -1.4793 C.ar    1  UNL1        0.0028
     22 N          -4.9317    1.0641   -1.1140 N.ar    1  UNL1       -0.3598
     23 C          -5.1075    0.4979    0.1168 C.ar    1  UNL1        0.0614
     24 C          -2.0853   -0.7307   -0.2293 C.ar    1  UNL1        0.0084
     25 C          -2.6656   -1.5839   -1.1376 C.ar    1  UNL1        0.0100
     26 N          -1.6474   -2.1774   -1.8433 N.ar    1  UNL1       -0.3659
     27 C          -0.4310   -1.7198   -1.3861 C.ar    1  UNL1        0.0101
     28 C          -0.6659   -0.7580   -0.4306 C.ar    1  UNL1        0.0098
     29 C           0.2936   -0.0406    0.3580 C.ar    1  UNL1        0.0179
     30 C           1.7179    0.1097    0.2610 C.ar    1  UNL1        0.0028
     31 C           2.5482   -0.1628   -0.9357 C.ar    1  UNL1       -0.0127
     32 C           2.2107   -0.2184   -2.2360 C.2     1  UNL1       -0.0719
     33 H           3.5389    0.3532   -3.8250 H       1  UNL1        0.0350
     34 H           3.3826   -1.4142   -3.5914 H       1  UNL1        0.0350
     35 H           5.5756   -0.4249   -2.3372 H       1  UNL1        0.0581
     36 H           6.7303   -0.3210   -0.2258 H       1  UNL1        0.0625
     37 H           7.7120    0.3448    1.9547 H       1  UNL1        0.0633
     38 H           6.1876    1.1528    3.7575 H       1  UNL1        0.0830
     39 H           2.1309    1.5761    3.2893 H       1  UNL1        0.0836
     40 H          -2.1720    1.1564    2.4868 H       1  UNL1        0.0645
     41 H          -7.4210   -0.3554    2.3963 H       1  UNL1        0.0700
     42 H          -8.2347    1.0592   -0.5273 H       1  UNL1        0.0639
     43 H          -6.4384    1.8042   -2.4377 H       1  UNL1        0.0807
     44 H          -4.0570    1.2240   -1.6002 H       1  UNL1        0.1654
     45 H          -3.6947   -1.8695   -1.3142 H       1  UNL1        0.0813
     46 H          -1.7701   -2.8967   -2.5450 H       1  UNL1        0.1648
     47 H           0.4767   -2.1613   -1.7717 H       1  UNL1        0.0813
     48 H           1.2248   -0.0850   -2.6522 H       1  UNL1        0.0581
@<TRIPOS>BOND
     1     1     2    1
     2     2     3    2
     3     3     4   ar
     4     4     5   ar
     5     5     6   ar
     6     6     7   ar
     7     7     8   ar
     8     8     9   ar
     9     9    10   ar
    10    10    11   ar
    11    11    12   ar
    12    12    13   ar
    13    13    14   ar
    14    14    15   ar
    15    15    16    1
    16    16    17   ar
    17    17    18   ar
    18    18    19   ar
    19    19    20   ar
    20    20    21   ar
    21    21    22   ar
    22    22    23   ar
    23    15    24   ar
    24    24    25   ar
    25    25    26   ar
    26    26    27   ar
    27    27    28   ar
    28    28    29   ar
    29    29    30   ar
    30    30    31   ar
    31    31    32    2
    32    32     1    1
    33    31     3   ar
    34     9     4   ar
    35    30    10   ar
    36    29    13   ar
    37    23    16   ar
    38    28    24   ar
    39    23    19   ar
    40     1    33    1
    41     1    34    1
    42     2    35    1
    43     5    36    1
    44     6    37    1
    45     7    38    1
    46    11    39    1
    47    14    40    1
    48    18    41    1
    49    20    42    1
    50    21    43    1
    51    22    44    1
    52    25    45    1
    53    26    46    1
    54    27    47    1
    55    32    48    1
