@<TRIPOS>MOLECULE
*****
 43 49 0 0 0
SMALL
GASTEIGER

@<TRIPOS>ATOM
      1 C          -3.0127   -1.0338    3.1077 C.3     1  UNL1       -0.0148
      2 C          -4.0511   -0.9134    2.0357 C.2     1  UNL1       -0.0719
      3 C          -3.4673   -0.5332    0.8871 C.ar    1  UNL1       -0.0119
      4 C          -4.0948   -0.1018   -0.3617 C.ar    1  UNL1        0.0099
      5 C          -5.4560   -0.2497   -0.6425 C.ar    1  UNL1       -0.0505
      6 C          -5.9661    0.2364   -1.8415 C.ar    1  UNL1       -0.0430
      7 C          -5.0970    0.8574   -2.7196 C.ar    1  UNL1        0.0284
      8 N          -3.7778    1.0131   -2.4855 N.ar    1  UNL1       -0.2528
      9 C          -3.2728    0.5346   -1.3115 C.ar    1  UNL1        0.0974
     10 C          -1.7942    0.6635   -1.0987 C.ar    1  UNL1        0.0980
     11 N          -1.1154    1.3813   -2.0318 N.ar    1  UNL1       -0.2522
     12 C           0.2251    1.4697   -1.9177 C.ar    1  UNL1        0.0361
     13 C           0.9980    0.8008   -0.9773 C.ar    1  UNL1        0.0021
     14 C           2.4263    0.9610   -1.0131 C.ar    1  UNL1       -0.0412
     15 C           3.3658    0.2953   -0.1805 C.ar    1  UNL1        0.0280
     16 C           4.8074    0.5346   -0.2563 C.ar    1  UNL1        0.1636
     17 N           5.2911    0.9438   -1.4352 N.ar    1  UNL1       -0.2160
     18 C           6.6001    1.1832   -1.4495 C.ar    1  UNL1        0.1200
     19 N           7.4285    1.0653   -0.4166 N.ar    1  UNL1       -0.2241
     20 C           6.8343    0.6687    0.7044 C.ar    1  UNL1        0.1200
     21 N           5.5409    0.3907    0.8507 N.ar    1  UNL1       -0.2160
     22 C           2.7033   -0.6373    0.6374 C.ar    1  UNL1        0.0004
     23 C           3.3538   -1.5504    1.4395 C.ar    1  UNL1       -0.0159
     24 S           2.2737   -2.6507    2.1822 S.2     1  UNL1       -0.1038
     25 C           0.9232   -1.9315    1.4148 C.ar    1  UNL1       -0.0160
     26 C           1.2541   -0.8027    0.6979 C.ar    1  UNL1       -0.0018
     27 C           0.2973   -0.0201   -0.0406 C.ar    1  UNL1        0.0016
     28 C          -1.1385    0.0339   -0.0149 C.ar    1  UNL1        0.0182
     29 C          -2.0220   -0.4315    1.0763 C.ar    1  UNL1       -0.0113
     30 C          -1.7623   -0.6391    2.3797 C.2     1  UNL1       -0.0719
     31 H          -3.2196   -0.3441    3.9312 H       1  UNL1        0.0350
     32 H          -2.9462   -2.0567    3.4891 H       1  UNL1        0.0350
     33 H          -5.1086   -1.0263    2.2177 H       1  UNL1        0.0581
     34 H          -6.1252   -0.7356    0.0606 H       1  UNL1        0.0625
     35 H          -7.0182    0.1368   -2.0838 H       1  UNL1        0.0633
     36 H          -5.4462    1.2572   -3.6674 H       1  UNL1        0.0830
     37 H           0.6812    2.1050   -2.6746 H       1  UNL1        0.0836
     38 H           2.8343    1.6598   -1.7504 H       1  UNL1        0.0631
     39 H           7.0305    1.5069   -2.3913 H       1  UNL1        0.1048
     40 H           7.4621    0.5617    1.5826 H       1  UNL1        0.1048
     41 H           4.4122   -1.6780    1.6165 H       1  UNL1        0.0700
     42 H          -0.0378   -2.4077    1.5375 H       1  UNL1        0.0700
     43 H          -0.8135   -0.5170    2.8794 H       1  UNL1        0.0581
@<TRIPOS>BOND
     1     1     2    1
     2     2     3    2
     3     3     4   ar
     4     4     5   ar
     5     5     6   ar
     6     6     7   ar
     7     7     8   ar
     8     8     9   ar
     9     9    10   ar
    10    10    11   ar
    11    11    12   ar
    12    12    13   ar
    13    13    14   ar
    14    14    15   ar
    15    15    16    1
    16    16    17   ar
    17    17    18   ar
    18    18    19   ar
    19    19    20   ar
    20    20    21   ar
    21    15    22   ar
    22    22    23   ar
    23    23    24   ar
    24    24    25   ar
    25    25    26   ar
    26    26    27   ar
    27    27    28   ar
    28    28    29   ar
    29    29    30    2
    30    30     1    1
    31    29     3   ar
    32     9     4   ar
    33    28    10   ar
    34    27    13   ar
    35    21    16   ar
    36    26    22   ar
    37     1    31    1
    38     1    32    1
    39     2    33    1
    40     5    34    1
    41     6    35    1
    42     7    36    1
    43    12    37    1
    44    14    38    1
    45    18    39    1
    46    20    40    1
    47    23    41    1
    48    25    42    1
    49    30    43    1
