@<TRIPOS>MOLECULE
*****
 49 56 0 0 0
SMALL
GASTEIGER

@<TRIPOS>ATOM
      1 C          -3.3284   -3.4838    1.2151 C.3     1  UNL1       -0.0148
      2 C          -4.3569   -2.4070    1.0565 C.2     1  UNL1       -0.0719
      3 C          -3.7702   -1.2819    0.6159 C.ar    1  UNL1       -0.0134
      4 C          -4.3536    0.0081    0.2477 C.ar    1  UNL1       -0.0070
      5 C          -5.6884    0.3350    0.5120 C.ar    1  UNL1       -0.0353
      6 C          -6.1180    1.6181    0.2222 C.ar    1  UNL1        0.0282
      7 N          -5.3146    2.5787   -0.2756 N.ar    1  UNL1       -0.2626
      8 C          -4.0249    2.2267   -0.5252 C.ar    1  UNL1        0.0359
      9 C          -3.4881    0.9504   -0.3495 C.ar    1  UNL1        0.0091
     10 C          -2.0423    0.6292   -0.6614 C.ar    1  UNL1       -0.0001
     11 C          -1.4468   -0.4532   -0.0490 C.ar    1  UNL1       -0.0001
     12 C           0.0621   -0.5499   -0.0162 C.ar    1  UNL1        0.0091
     13 C           0.7418   -1.2505    0.9832 C.ar    1  UNL1        0.0366
     14 N           2.0921   -1.3571    1.0876 N.ar    1  UNL1       -0.2537
     15 C           2.8255   -0.7299    0.1418 C.ar    1  UNL1        0.0801
     16 C           2.2688    0.0501   -0.8606 C.ar    1  UNL1       -0.0268
     17 C           0.8771    0.1699   -0.9129 C.ar    1  UNL1       -0.0064
     18 C           0.1982    1.1038   -1.8093 C.ar    1  UNL1       -0.0134
     19 C           0.6933    1.8500   -2.8140 C.2     1  UNL1       -0.0719
     20 C          -0.4187    2.6239   -3.4499 C.3     1  UNL1       -0.0148
     21 C          -1.6079    2.1956   -2.6391 C.2     1  UNL1       -0.0719
     22 C          -1.2326    1.3498   -1.6598 C.ar    1  UNL1       -0.0128
     23 C           4.2592   -0.8476    0.2933 C.ar    1  UNL1        0.0614
     24 S           5.2512   -1.7911   -0.7679 S.2     1  UNL1       -0.0924
     25 C           6.7261   -1.3547    0.0604 C.ar    1  UNL1       -0.0145
     26 C           6.3967   -0.5112    1.0663 C.ar    1  UNL1        0.0073
     27 C           6.9761    0.2429    2.1174 C.ar    1  UNL1       -0.0361
     28 C           5.9229    0.9418    2.7541 C.ar    1  UNL1        0.0028
     29 N           4.6847    0.6216    2.2007 N.ar    1  UNL1       -0.3597
     30 C           5.0548   -0.2369    1.2001 C.ar    1  UNL1        0.0629
     31 C          -2.3379   -1.4947    0.4811 C.ar    1  UNL1       -0.0128
     32 C          -2.0775   -2.7826    0.7808 C.2     1  UNL1       -0.0719
     33 H          -3.5495   -4.3393    0.5701 H       1  UNL1        0.0350
     34 H          -3.2538   -3.8169    2.2545 H       1  UNL1        0.0350
     35 H          -5.4084   -2.5586    1.2359 H       1  UNL1        0.0581
     36 H          -6.3792   -0.3714    0.9563 H       1  UNL1        0.0639
     37 H          -7.1441    1.9224    0.4106 H       1  UNL1        0.0830
     38 H          -3.4189    3.0591   -0.8641 H       1  UNL1        0.0836
     39 H           0.2139   -1.7463    1.7944 H       1  UNL1        0.0836
     40 H           2.9116    0.5830   -1.5539 H       1  UNL1        0.0645
     41 H           1.7181    1.8890   -3.1502 H       1  UNL1        0.0581
     42 H          -0.5368    2.3500   -4.5025 H       1  UNL1        0.0350
     43 H          -0.2540    3.7033   -3.3644 H       1  UNL1        0.0350
     44 H          -2.6096    2.5174   -2.8791 H       1  UNL1        0.0581
     45 H           7.6867   -1.7472   -0.2450 H       1  UNL1        0.0700
     46 H           8.0237    0.3143    2.3796 H       1  UNL1        0.0639
     47 H           5.9629    1.6477    3.5812 H       1  UNL1        0.0807
     48 H           3.7459    0.9240    2.4379 H       1  UNL1        0.1654
     49 H          -1.1323   -3.2939    0.6930 H       1  UNL1        0.0581
@<TRIPOS>BOND
     1     1     2    1
     2     2     3    2
     3     3     4   ar
     4     4     5   ar
     5     5     6   ar
     6     6     7   ar
     7     7     8   ar
     8     8     9   ar
     9     9    10   ar
    10    10    11   ar
    11    11    12   ar
    12    12    13   ar
    13    13    14   ar
    14    14    15   ar
    15    15    16   ar
    16    16    17   ar
    17    17    18   ar
    18    18    19    2
    19    19    20    1
    20    20    21    1
    21    21    22    2
    22    15    23    1
    23    23    24   ar
    24    24    25   ar
    25    25    26   ar
    26    26    27   ar
    27    27    28   ar
    28    28    29   ar
    29    29    30   ar
    30    11    31   ar
    31    31    32    2
    32    32     1    1
    33    31     3   ar
    34     9     4   ar
    35    22    10   ar
    36    30    23   ar
    37    17    12   ar
    38    22    18   ar
    39    30    26   ar
    40     1    33    1
    41     1    34    1
    42     2    35    1
    43     5    36    1
    44     6    37    1
    45     8    38    1
    46    13    39    1
    47    16    40    1
    48    19    41    1
    49    20    42    1
    50    20    43    1
    51    21    44    1
    52    25    45    1
    53    27    46    1
    54    28    47    1
    55    29    48    1
    56    32    49    1
