@<TRIPOS>MOLECULE
*****
 42 48 0 0 0
SMALL
GASTEIGER

@<TRIPOS>ATOM
      1 SI          0.9577    1.6395    3.3630 Si      1  UNL1        0.0000
      2 C           1.9848    0.6387    2.1945 C.2     1  UNL1        0.0000
      3 C           1.2525    0.1398    1.1753 C.ar    1  UNL1        0.0000
      4 C           1.8085   -0.6909    0.1061 C.ar    1  UNL1        0.0000
      5 C           0.9690   -1.1410   -0.8488 C.ar    1  UNL1        0.0000
      6 C          -0.4810   -0.8438   -0.8630 C.ar    1  UNL1        0.0000
      7 C          -1.2296   -1.3832   -1.9064 C.ar    1  UNL1        0.0000
      8 C          -2.5963   -1.1440   -1.9942 C.ar    1  UNL1        0.0000
      9 C          -3.2502   -0.3486   -1.0294 C.ar    1  UNL1        0.0000
     10 C          -4.6018    0.0256   -0.9161 C.ar    1  UNL1        0.0000
     11 SI         -6.1917   -0.2756   -1.8796 Si      1  UNL1        0.0000
     12 C          -7.1012    0.8017   -0.5840 C.2     1  UNL1        0.0000
     13 C          -6.2612    1.2607    0.3683 C.2     1  UNL1        0.0000
     14 C          -4.9253    0.8200    0.1525 C.ar    1  UNL1        0.0000
     15 S          -3.5607    1.1436    1.0745 S.2     1  UNL1        0.0000
     16 C          -2.4972    0.2052    0.0370 C.ar    1  UNL1        0.0000
     17 C          -1.0925   -0.0367    0.1390 C.ar    1  UNL1        0.0000
     18 C          -0.2016    0.4879    1.2183 C.ar    1  UNL1        0.0000
     19 C          -0.5168    1.2576    2.2828 C.2     1  UNL1        0.0000
     20 C           3.1892   -1.0350   -0.0316 C.ar    1  UNL1        0.0000
     21 S           3.7608   -2.6773    0.1988 S.2     1  UNL1        0.0000
     22 C           5.4234   -2.2702   -0.0972 C.ar    1  UNL1        0.0000
     23 C           5.4864   -0.9475   -0.3444 C.ar    1  UNL1        0.0000
     24 N           6.6039   -0.2155   -0.6201 N.ar    1  UNL1        0.0000
     25 C           6.0605    1.0589   -0.7764 C.ar    1  UNL1        0.0000
     26 C           4.6605    1.0531   -0.5945 C.ar    1  UNL1        0.0000
     27 C           4.2822   -0.2841   -0.3070 C.ar    1  UNL1        0.0000
     28 H           1.3096    3.0802    3.3499 H       1  UNL1        0.0000
     29 H           0.8487    1.0247    4.7081 H       1  UNL1        0.0000
     30 H           3.0418    0.5052    2.3639 H       1  UNL1        0.0000
     31 H           1.3472   -1.7450   -1.6701 H       1  UNL1        0.0000
     32 H          -0.7594   -1.9997   -2.6695 H       1  UNL1        0.0000
     33 H          -3.1556   -1.5780   -2.8193 H       1  UNL1        0.0000
     34 H          -6.2224    0.3642   -3.2183 H       1  UNL1        0.0000
     35 H          -6.6733   -1.6787   -1.8364 H       1  UNL1        0.0000
     36 H          -8.1614    0.9806   -0.6651 H       1  UNL1        0.0000
     37 H          -6.5540    1.8883    1.2006 H       1  UNL1        0.0000
     38 H          -1.4636    1.6603    2.5858 H       1  UNL1        0.0000
     39 H           6.2144   -3.0056   -0.0670 H       1  UNL1        0.0000
     40 H           7.5615   -0.5378   -0.6867 H       1  UNL1        0.0000
     41 H           6.7206    1.8847   -1.0092 H       1  UNL1        0.0000
     42 H           4.0135    1.9177   -0.6648 H       1  UNL1        0.0000
@<TRIPOS>BOND
     1     1     2    1
     2     2     3    2
     3     3     4   ar
     4     4     5   ar
     5     5     6   ar
     6     6     7   ar
     7     7     8   ar
     8     8     9   ar
     9     9    10   ar
    10    10    11    1
    11    11    12    1
    12    12    13    2
    13    13    14    1
    14    14    15   ar
    15    15    16   ar
    16    16    17   ar
    17    17    18   ar
    18    18    19    2
    19     4    20    1
    20    20    21   ar
    21    21    22   ar
    22    22    23   ar
    23    23    24   ar
    24    24    25   ar
    25    25    26   ar
    26    26    27   ar
    27    19     1    1
    28    27    20   ar
    29    18     3   ar
    30    27    23   ar
    31    17     6   ar
    32    16     9   ar
    33    14    10   ar
    34     1    28    1
    35     1    29    1
    36     2    30    1
    37     5    31    1
    38     7    32    1
    39     8    33    1
    40    11    34    1
    41    11    35    1
    42    12    36    1
    43    13    37    1
    44    19    38    1
    45    22    39    1
    46    24    40    1
    47    25    41    1
    48    26    42    1
