@<TRIPOS>MOLECULE
*****
 44 50 0 0 0
SMALL
GASTEIGER

@<TRIPOS>ATOM
      1 C          -1.0345    4.0559    0.4147 C.3     1  UNL1       -0.0148
      2 C          -2.3547    3.4391    0.0766 C.2     1  UNL1       -0.0719
      3 C          -2.2004    2.1177   -0.1112 C.ar    1  UNL1       -0.0133
      4 C          -3.2011    1.1030   -0.4580 C.ar    1  UNL1       -0.0070
      5 C          -4.4945    1.4566   -0.8622 C.ar    1  UNL1       -0.0353
      6 C          -5.3326    0.4657   -1.3321 C.ar    1  UNL1        0.0282
      7 N          -4.9586   -0.8181   -1.4592 N.ar    1  UNL1       -0.2626
      8 C          -3.6990   -1.1283   -1.0564 C.ar    1  UNL1        0.0359
      9 C          -2.7836   -0.2497   -0.4704 C.ar    1  UNL1        0.0092
     10 C          -1.3982   -0.6632   -0.0242 C.ar    1  UNL1        0.0016
     11 C          -1.0402   -2.0009    0.3437 C.ar    1  UNL1       -0.0088
     12 C          -1.9594   -3.0264    0.6921 C.ar    1  UNL1       -0.0534
     13 C          -1.5597   -4.3306    1.0056 C.ar    1  UNL1       -0.0611
     14 C          -0.2146   -4.6614    1.0082 C.ar    1  UNL1       -0.0611
     15 C           0.7306   -3.6787    0.7347 C.ar    1  UNL1       -0.0534
     16 C           0.3343   -2.3554    0.4319 C.ar    1  UNL1       -0.0081
     17 C           1.3462   -1.3770    0.2303 C.ar    1  UNL1        0.0087
     18 C           2.7782   -1.4055    0.2190 C.ar    1  UNL1       -0.0260
     19 C           3.2355   -0.1244    0.0061 C.ar    1  UNL1        0.0728
     20 N           2.1280    0.6755   -0.0996 N.ar    1  UNL1       -0.3520
     21 C           0.9646   -0.0465    0.0498 C.ar    1  UNL1        0.0560
     22 C          -0.3842    0.3439    0.0116 C.ar    1  UNL1        0.0147
     23 C          -0.7975    1.7571    0.0678 C.ar    1  UNL1       -0.0115
     24 C          -0.1164    2.8699    0.3981 C.2     1  UNL1       -0.0719
     25 C           4.5492    0.4287   -0.1127 C.ar    1  UNL1        0.1243
     26 N           4.7253    1.7187   -0.3187 N.ar    1  UNL1       -0.2459
     27 C           6.0774    1.9931   -0.3962 C.ar    1  UNL1        0.0355
     28 C           6.9146    0.9092   -0.2472 C.ar    1  UNL1       -0.0042
     29 S           5.9827   -0.5079   -0.0012 S.2     1  UNL1       -0.0742
     30 H          -1.0595    4.5199    1.4051 H       1  UNL1        0.0350
     31 H          -0.7375    4.7968   -0.3331 H       1  UNL1        0.0350
     32 H          -3.2729    4.0009    0.0120 H       1  UNL1        0.0581
     33 H          -4.8411    2.4827   -0.8480 H       1  UNL1        0.0639
     34 H          -6.3434    0.6919   -1.6581 H       1  UNL1        0.0830
     35 H          -3.4382   -2.1604   -1.2732 H       1  UNL1        0.0836
     36 H          -3.0225   -2.8143    0.7792 H       1  UNL1        0.0624
     37 H          -2.3061   -5.0789    1.2603 H       1  UNL1        0.0618
     38 H           0.1014   -5.6723    1.2503 H       1  UNL1        0.0618
     39 H           1.7816   -3.9518    0.7788 H       1  UNL1        0.0624
     40 H           3.4006   -2.2808    0.3495 H       1  UNL1        0.0646
     41 H           2.1862    1.6599   -0.3163 H       1  UNL1        0.1660
     42 H           0.9174    2.9515    0.6875 H       1  UNL1        0.0581
     43 H           6.4023    3.0127   -0.5647 H       1  UNL1        0.0835
     44 H           7.9943    0.8821   -0.2704 H       1  UNL1        0.0709
@<TRIPOS>BOND
     1     1     2    1
     2     2     3    2
     3     3     4   ar
     4     4     5   ar
     5     5     6   ar
     6     6     7   ar
     7     7     8   ar
     8     8     9   ar
     9     9    10   ar
    10    10    11   ar
    11    11    12   ar
    12    12    13   ar
    13    13    14   ar
    14    14    15   ar
    15    15    16   ar
    16    16    17   ar
    17    17    18   ar
    18    18    19   ar
    19    19    20   ar
    20    20    21   ar
    21    21    22   ar
    22    22    23   ar
    23    23    24    2
    24    19    25    1
    25    25    26   ar
    26    26    27   ar
    27    27    28   ar
    28    28    29   ar
    29    24     1    1
    30    29    25   ar
    31    23     3   ar
    32     9     4   ar
    33    22    10   ar
    34    16    11   ar
    35    21    17   ar
    36     1    30    1
    37     1    31    1
    38     2    32    1
    39     5    33    1
    40     6    34    1
    41     8    35    1
    42    12    36    1
    43    13    37    1
    44    14    38    1
    45    15    39    1
    46    18    40    1
    47    20    41    1
    48    24    42    1
    49    27    43    1
    50    28    44    1
