@<TRIPOS>MOLECULE
*****
 44 51 0 0 0
SMALL
GASTEIGER

@<TRIPOS>ATOM
      1 C          -2.5855    3.5373    0.7374 C.3     1  UNL1       -0.0148
      2 C          -3.6934    2.5378    0.6415 C.2     1  UNL1       -0.0719
      3 C          -3.1790    1.3159    0.4225 C.ar    1  UNL1       -0.0134
      4 C          -3.8882    0.0674    0.1283 C.ar    1  UNL1       -0.0070
      5 C          -5.2666   -0.0731    0.3232 C.ar    1  UNL1       -0.0353
      6 C          -5.8439   -1.3018    0.0731 C.ar    1  UNL1        0.0282
      7 N          -5.1459   -2.3797   -0.3246 N.ar    1  UNL1       -0.2626
      8 C          -3.8098   -2.2133   -0.4975 C.ar    1  UNL1        0.0359
      9 C          -3.1112   -1.0156   -0.3409 C.ar    1  UNL1        0.0092
     10 C          -1.6441   -0.8754   -0.5147 C.ar    1  UNL1        0.0032
     11 C          -0.7916   -1.7230   -1.2354 C.ar    1  UNL1        0.0288
     12 C          -1.1217   -2.7126   -2.1311 C.ar    1  UNL1        0.1000
     13 O           0.0046   -3.2920   -2.6362 O.2     1  UNL1       -0.4698
     14 C           1.0724   -2.6493   -2.0884 C.ar    1  UNL1        0.1000
     15 C           0.6382   -1.6556   -1.2454 C.ar    1  UNL1        0.0282
     16 C           1.4351   -0.7599   -0.5034 C.ar    1  UNL1       -0.0038
     17 C           2.8653   -0.8072   -0.4973 C.ar    1  UNL1       -0.0429
     18 C           3.6439    0.0523    0.2842 C.ar    1  UNL1        0.0190
     19 C           5.0948   -0.0043    0.2925 C.ar    1  UNL1        0.0409
     20 C           5.9370   -1.0400    0.6521 C.ar    1  UNL1        0.0425
     21 N           7.2902   -0.7974    0.5109 N.ar    1  UNL1       -0.2551
     22 C           7.4611    0.4230    0.0530 C.ar    1  UNL1        0.0652
     23 S           6.0359    1.3241   -0.2564 S.2     1  UNL1       -0.0754
     24 C           2.9329    0.9365    1.1355 C.ar    1  UNL1        0.1087
     25 N           3.4784    1.7782    2.0323 N.ar    1  UNL1       -0.1901
     26 S           2.2369    2.5144    2.8300 S.2     1  UNL1        0.1165
     27 N           0.9457    1.8222    2.0746 N.ar    1  UNL1       -0.1901
     28 C           1.4074    0.9931    1.1204 C.ar    1  UNL1        0.1088
     29 C           0.6013    0.1778    0.2233 C.ar    1  UNL1        0.0193
     30 C          -0.8758    0.2001    0.0808 C.ar    1  UNL1        0.0007
     31 C          -1.7174    1.3884    0.4043 C.ar    1  UNL1       -0.0128
     32 C          -1.3757    2.6859    0.5059 C.2     1  UNL1       -0.0719
     33 H          -2.6805    4.3016   -0.0395 H       1  UNL1        0.0350
     34 H          -2.5570    4.0125    1.7220 H       1  UNL1        0.0350
     35 H          -4.7373    2.8064    0.6774 H       1  UNL1        0.0581
     36 H          -5.8833    0.7442    0.6771 H       1  UNL1        0.0639
     37 H          -6.9099   -1.4598    0.2079 H       1  UNL1        0.0830
     38 H          -3.3082   -3.1445   -0.7373 H       1  UNL1        0.0836
     39 H          -2.0416   -3.1107   -2.5354 H       1  UNL1        0.1036
     40 H           2.0371   -3.0116   -2.4150 H       1  UNL1        0.1036
     41 H           3.3800   -1.5373   -1.1216 H       1  UNL1        0.0631
     42 H           5.6154   -2.0040    1.0282 H       1  UNL1        0.0841
     43 H           8.4433    0.8398   -0.1278 H       1  UNL1        0.0907
     44 H          -0.3892    3.1092    0.4093 H       1  UNL1        0.0581
@<TRIPOS>BOND
     1     1     2    1
     2     2     3    2
     3     3     4   ar
     4     4     5   ar
     5     5     6   ar
     6     6     7   ar
     7     7     8   ar
     8     8     9   ar
     9     9    10   ar
    10    10    11   ar
    11    11    12   ar
    12    12    13   ar
    13    13    14   ar
    14    14    15   ar
    15    15    16   ar
    16    16    17   ar
    17    17    18   ar
    18    18    19    1
    19    19    20   ar
    20    20    21   ar
    21    21    22   ar
    22    22    23   ar
    23    18    24   ar
    24    24    25   ar
    25    25    26   ar
    26    26    27   ar
    27    27    28   ar
    28    28    29   ar
    29    29    30   ar
    30    30    31   ar
    31    31    32    2
    32    32     1    1
    33    31     3   ar
    34     9     4   ar
    35    30    10   ar
    36    15    11   ar
    37    29    16   ar
    38    23    19   ar
    39    28    24   ar
    40     1    33    1
    41     1    34    1
    42     2    35    1
    43     5    36    1
    44     6    37    1
    45     8    38    1
    46    12    39    1
    47    14    40    1
    48    17    41    1
    49    20    42    1
    50    22    43    1
    51    32    44    1
