@<TRIPOS>MOLECULE
*****
 43 49 0 0 0
SMALL
GASTEIGER

@<TRIPOS>ATOM
      1 C          -2.9438    3.1342   -1.6039 C.3     1  UNL1       -0.0148
      2 C          -4.1197    2.4373   -1.0063 C.2     1  UNL1       -0.0719
      3 C          -3.7165    1.3090   -0.3972 C.ar    1  UNL1       -0.0134
      4 C          -4.5333    0.3220    0.3155 C.ar    1  UNL1       -0.0070
      5 C          -5.9214    0.4670    0.4455 C.ar    1  UNL1       -0.0353
      6 C          -6.6300   -0.5002    1.1296 C.ar    1  UNL1        0.0282
      7 N          -6.0576   -1.5815    1.6822 N.ar    1  UNL1       -0.2626
      8 C          -4.7119   -1.6970    1.5409 C.ar    1  UNL1        0.0359
      9 C          -3.8738   -0.7945    0.8750 C.ar    1  UNL1        0.0085
     10 C          -2.3852   -0.9763    0.7519 C.ar    1  UNL1       -0.0070
     11 C          -1.7476   -2.0915    1.3121 C.ar    1  UNL1       -0.0528
     12 C          -0.3702   -2.2829    1.2144 C.ar    1  UNL1       -0.0529
     13 C           0.4411   -1.3506    0.5415 C.ar    1  UNL1       -0.0096
     14 C           1.8639   -1.3826    0.3446 C.ar    1  UNL1       -0.0387
     15 C           2.3418   -0.3086   -0.3666 C.ar    1  UNL1        0.0276
     16 S           1.0716    0.7361   -0.7892 S.2     1  UNL1       -0.0871
     17 C          -0.1618   -0.2216   -0.0347 C.ar    1  UNL1        0.0282
     18 C          -1.5752   -0.0149    0.0583 C.ar    1  UNL1        0.0045
     19 C          -2.2652    1.1594   -0.5330 C.ar    1  UNL1       -0.0124
     20 C          -1.8183    2.2190   -1.2338 C.2     1  UNL1       -0.0719
     21 C           3.7142   -0.0454   -0.7144 C.ar    1  UNL1        0.0333
     22 S           4.1843    0.5312   -2.2838 S.2     1  UNL1       -0.0953
     23 C           5.8662    0.5390   -1.8942 C.ar    1  UNL1       -0.0197
     24 C           6.0575    0.1154   -0.6090 C.ar    1  UNL1       -0.0289
     25 C           7.2094   -0.0963    0.3128 C.3     1  UNL1       -0.0081
     26 C           6.4763   -0.5737    1.5688 C.2     1  UNL1       -0.0791
     27 C           5.1391   -0.6206    1.3709 C.2     1  UNL1       -0.0568
     28 C           4.8426   -0.2094    0.0436 C.ar    1  UNL1       -0.0066
     29 H          -3.0429    3.2198   -2.6899 H       1  UNL1        0.0350
     30 H          -2.8061    4.1271   -1.1661 H       1  UNL1        0.0350
     31 H          -5.1263    2.8171   -1.0770 H       1  UNL1        0.0581
     32 H          -6.4536    1.3124    0.0268 H       1  UNL1        0.0639
     33 H          -7.7064   -0.4263    1.2533 H       1  UNL1        0.0830
     34 H          -4.3333   -2.5958    2.0154 H       1  UNL1        0.0836
     35 H          -2.2972   -2.8591    1.8484 H       1  UNL1        0.0624
     36 H           0.0786   -3.1655    1.6655 H       1  UNL1        0.0624
     37 H           2.4987   -2.1810    0.7095 H       1  UNL1        0.0635
     38 H          -0.8105    2.4496   -1.5292 H       1  UNL1        0.0581
     39 H           6.5978    0.8527   -2.6255 H       1  UNL1        0.0696
     40 H           7.7507    0.8335    0.5081 H       1  UNL1        0.0356
     41 H           7.8909   -0.8673   -0.0569 H       1  UNL1        0.0356
     42 H           6.9786   -0.8274    2.4905 H       1  UNL1        0.0575
     43 H           4.4043   -0.9117    2.1081 H       1  UNL1        0.0621
@<TRIPOS>BOND
     1     1     2    1
     2     2     3    2
     3     3     4   ar
     4     4     5   ar
     5     5     6   ar
     6     6     7   ar
     7     7     8   ar
     8     8     9   ar
     9     9    10   ar
    10    10    11   ar
    11    11    12   ar
    12    12    13   ar
    13    13    14   ar
    14    14    15   ar
    15    15    16   ar
    16    16    17   ar
    17    17    18   ar
    18    18    19   ar
    19    19    20    2
    20    15    21    1
    21    21    22   ar
    22    22    23   ar
    23    23    24   ar
    24    24    25    1
    25    25    26    1
    26    26    27    2
    27    27    28    1
    28    20     1    1
    29    28    21   ar
    30    19     3   ar
    31    28    24   ar
    32     9     4   ar
    33    18    10   ar
    34    17    13   ar
    35     1    29    1
    36     1    30    1
    37     2    31    1
    38     5    32    1
    39     6    33    1
    40     8    34    1
    41    11    35    1
    42    12    36    1
    43    14    37    1
    44    20    38    1
    45    23    39    1
    46    25    40    1
    47    25    41    1
    48    26    42    1
    49    27    43    1
