@<TRIPOS>MOLECULE
*****
 46 52 0 0 0
SMALL
GASTEIGER

@<TRIPOS>ATOM
      1 C          -3.8457   -0.1230   -2.4920 C.3     1  UNL1       -0.0148
      2 C          -4.6750    0.0489   -1.2580 C.2     1  UNL1       -0.0719
      3 C          -3.8797    0.0217   -0.1752 C.ar    1  UNL1       -0.0134
      4 C          -4.2569   -0.0379    1.2398 C.ar    1  UNL1       -0.0070
      5 C          -5.5665    0.1857    1.6765 C.ar    1  UNL1       -0.0353
      6 C          -5.8376    0.0749    3.0261 C.ar    1  UNL1        0.0282
      7 N          -4.9073   -0.2334    3.9474 N.ar    1  UNL1       -0.2626
      8 C          -3.6434   -0.4367    3.4975 C.ar    1  UNL1        0.0359
      9 C          -3.2360   -0.3649    2.1626 C.ar    1  UNL1        0.0100
     10 C          -1.8181   -0.5514    1.7201 C.ar    1  UNL1        0.0106
     11 C          -0.8184   -1.0086    2.5731 C.ar    1  UNL1        0.0366
     12 N           0.4956   -1.1266    2.2654 N.ar    1  UNL1       -0.2543
     13 C           0.9239   -0.6905    1.0804 C.ar    1  UNL1        0.0728
     14 C           2.3285   -0.7767    0.8744 C.ar    1  UNL1       -0.0273
     15 C           3.0515   -0.3156   -0.2559 C.ar    1  UNL1       -0.0053
     16 C           4.4946   -0.4209   -0.4177 C.ar    1  UNL1        0.0009
     17 C           5.3809    0.0279    0.5690 C.ar    1  UNL1       -0.0511
     18 C           6.7577   -0.0939    0.3874 C.ar    1  UNL1       -0.0430
     19 C           7.2173   -0.6690   -0.7846 C.ar    1  UNL1        0.0276
     20 N           6.4068   -1.1218   -1.7627 N.ar    1  UNL1       -0.2627
     21 C           5.0732   -0.9915   -1.5524 C.ar    1  UNL1        0.0353
     22 C           2.1741    0.3093   -1.1412 C.ar    1  UNL1        0.0079
     23 C           2.5167    1.0174   -2.2687 C.ar    1  UNL1        0.0100
     24 N           1.3620    1.5685   -2.7702 N.ar    1  UNL1       -0.3659
     25 C           0.2965    1.2395   -1.9624 C.ar    1  UNL1        0.0101
     26 C           0.7512    0.3920   -0.9784 C.ar    1  UNL1        0.0098
     27 C           0.0086   -0.1656    0.1130 C.ar    1  UNL1        0.0178
     28 C          -1.3963   -0.2426    0.4015 C.ar    1  UNL1        0.0014
     29 C          -2.4858   -0.1069   -0.5905 C.ar    1  UNL1       -0.0128
     30 C          -2.4672   -0.2733   -1.9249 C.2     1  UNL1       -0.0719
     31 H          -3.9148    0.7500   -3.1471 H       1  UNL1        0.0350
     32 H          -4.1431   -1.0217   -3.0404 H       1  UNL1        0.0350
     33 H          -5.7528    0.0898   -1.2703 H       1  UNL1        0.0581
     34 H          -6.3655    0.4399    0.9905 H       1  UNL1        0.0639
     35 H          -6.8398    0.2368    3.4126 H       1  UNL1        0.0830
     36 H          -2.9484   -0.6525    4.3033 H       1  UNL1        0.0836
     37 H          -1.0318   -1.3319    3.5879 H       1  UNL1        0.0836
     38 H           2.9008   -1.2441    1.6799 H       1  UNL1        0.0645
     39 H           5.0039    0.4849    1.4812 H       1  UNL1        0.0625
     40 H           7.4530    0.2538    1.1430 H       1  UNL1        0.0633
     41 H           8.2807   -0.7851   -0.9724 H       1  UNL1        0.0829
     42 H           4.4550   -1.3837   -2.3568 H       1  UNL1        0.0836
     43 H           3.4684    1.2246   -2.7405 H       1  UNL1        0.0813
     44 H           1.3131    2.1803   -3.5752 H       1  UNL1        0.1648
     45 H          -0.6728    1.6729   -2.1635 H       1  UNL1        0.0813
     46 H          -1.6108   -0.5226   -2.5315 H       1  UNL1        0.0581
@<TRIPOS>BOND
     1     1     2    1
     2     2     3    2
     3     3     4   ar
     4     4     5   ar
     5     5     6   ar
     6     6     7   ar
     7     7     8   ar
     8     8     9   ar
     9     9    10   ar
    10    10    11   ar
    11    11    12   ar
    12    12    13   ar
    13    13    14   ar
    14    14    15   ar
    15    15    16    1
    16    16    17   ar
    17    17    18   ar
    18    18    19   ar
    19    19    20   ar
    20    20    21   ar
    21    15    22   ar
    22    22    23   ar
    23    23    24   ar
    24    24    25   ar
    25    25    26   ar
    26    26    27   ar
    27    27    28   ar
    28    28    29   ar
    29    29    30    2
    30    30     1    1
    31    29     3   ar
    32     9     4   ar
    33    28    10   ar
    34    27    13   ar
    35    21    16   ar
    36    26    22   ar
    37     1    31    1
    38     1    32    1
    39     2    33    1
    40     5    34    1
    41     6    35    1
    42     8    36    1
    43    11    37    1
    44    14    38    1
    45    17    39    1
    46    18    40    1
    47    19    41    1
    48    21    42    1
    49    23    43    1
    50    24    44    1
    51    25    45    1
    52    30    46    1
