@<TRIPOS>MOLECULE
*****
 47 54 0 0 0
SMALL
GASTEIGER

@<TRIPOS>ATOM
      1 C          -3.4755   -2.6857    1.6958 C.3     1  UNL1       -0.0148
      2 C          -4.5229   -1.8052    1.0892 C.2     1  UNL1       -0.0719
      3 C          -3.9351   -0.7537    0.4936 C.ar    1  UNL1       -0.0134
      4 C          -4.5559    0.4546   -0.0565 C.ar    1  UNL1       -0.0070
      5 C          -5.9343    0.5598   -0.2676 C.ar    1  UNL1       -0.0353
      6 C          -6.4356    1.7500   -0.7568 C.ar    1  UNL1        0.0282
      7 N          -5.6679    2.8160   -1.0461 N.ar    1  UNL1       -0.2626
      8 C          -4.3333    2.6839   -0.8400 C.ar    1  UNL1        0.0359
      9 C          -3.6983    1.5423   -0.3431 C.ar    1  UNL1        0.0100
     10 C          -2.2149    1.4276   -0.1782 C.ar    1  UNL1        0.0106
     11 C          -1.3571    2.5143   -0.3144 C.ar    1  UNL1        0.0366
     12 N          -0.0046    2.4695   -0.2584 N.ar    1  UNL1       -0.2543
     13 C           0.6003    1.2854   -0.1562 C.ar    1  UNL1        0.0728
     14 C           2.0215    1.3252   -0.1907 C.ar    1  UNL1       -0.0272
     15 C           2.9029    0.2135   -0.1965 C.ar    1  UNL1       -0.0031
     16 C           4.3460    0.3059   -0.2703 C.ar    1  UNL1        0.0291
     17 C           5.1307   -0.2496   -1.2919 C.ar    1  UNL1        0.0375
     18 N           6.4975   -0.2058   -1.4353 N.ar    1  UNL1       -0.2604
     19 C           7.2690    0.4485   -0.5206 C.ar    1  UNL1        0.0557
     20 C           6.6249    1.0719    0.5655 C.ar    1  UNL1        0.1185
     21 N           7.2161    1.7594    1.5563 N.ar    1  UNL1       -0.1892
     22 S           5.9978    2.2718    2.5602 S.2     1  UNL1        0.1165
     23 N           4.6740    1.6429    1.7865 N.ar    1  UNL1       -0.1901
     24 C           5.1238    0.9995    0.6930 C.ar    1  UNL1        0.1105
     25 C           2.1604   -0.9662   -0.2027 C.ar    1  UNL1        0.0079
     26 C           2.6530   -2.2473   -0.2835 C.ar    1  UNL1        0.0100
     27 N           1.5726   -3.0933   -0.3658 N.ar    1  UNL1       -0.3659
     28 C           0.4042   -2.3660   -0.3332 C.ar    1  UNL1        0.0101
     29 C           0.7292   -1.0441   -0.1345 C.ar    1  UNL1        0.0098
     30 C          -0.1587    0.0774   -0.0418 C.ar    1  UNL1        0.0178
     31 C          -1.5840    0.1878    0.0990 C.ar    1  UNL1        0.0014
     32 C          -2.4839   -0.8753    0.5982 C.ar    1  UNL1       -0.0128
     33 C          -2.2148   -1.9473    1.3645 C.2     1  UNL1       -0.0719
     34 H          -3.4825   -3.6842    1.2496 H       1  UNL1        0.0350
     35 H          -3.6101   -2.7634    2.7787 H       1  UNL1        0.0350
     36 H          -5.5812   -1.9709    1.2157 H       1  UNL1        0.0581
     37 H          -6.6118   -0.2593   -0.0586 H       1  UNL1        0.0639
     38 H          -7.4992    1.8804   -0.9345 H       1  UNL1        0.0830
     39 H          -3.7816    3.5751   -1.1233 H       1  UNL1        0.0836
     40 H          -1.7273    3.5239   -0.4679 H       1  UNL1        0.0836
     41 H           2.4693    2.3215   -0.2393 H       1  UNL1        0.0645
     42 H           4.6407   -0.7892   -2.1043 H       1  UNL1        0.0836
     43 H           8.3396    0.4592   -0.6749 H       1  UNL1        0.0852
     44 H           3.6579   -2.6463   -0.3223 H       1  UNL1        0.0813
     45 H           1.6277   -4.0979   -0.4781 H       1  UNL1        0.1648
     46 H          -0.5396   -2.8745   -0.4685 H       1  UNL1        0.0813
     47 H          -1.2489   -2.2418    1.7439 H       1  UNL1        0.0581
@<TRIPOS>BOND
     1     1     2    1
     2     2     3    2
     3     3     4   ar
     4     4     5   ar
     5     5     6   ar
     6     6     7   ar
     7     7     8   ar
     8     8     9   ar
     9     9    10   ar
    10    10    11   ar
    11    11    12   ar
    12    12    13   ar
    13    13    14   ar
    14    14    15   ar
    15    15    16    1
    16    16    17   ar
    17    17    18   ar
    18    18    19   ar
    19    19    20   ar
    20    20    21   ar
    21    21    22   ar
    22    22    23   ar
    23    23    24   ar
    24    15    25   ar
    25    25    26   ar
    26    26    27   ar
    27    27    28   ar
    28    28    29   ar
    29    29    30   ar
    30    30    31   ar
    31    31    32   ar
    32    32    33    2
    33    33     1    1
    34    32     3   ar
    35     9     4   ar
    36    31    10   ar
    37    30    13   ar
    38    24    16   ar
    39    29    25   ar
    40    24    20   ar
    41     1    34    1
    42     1    35    1
    43     2    36    1
    44     5    37    1
    45     6    38    1
    46     8    39    1
    47    11    40    1
    48    14    41    1
    49    17    42    1
    50    19    43    1
    51    26    44    1
    52    27    45    1
    53    28    46    1
    54    33    47    1
