@<TRIPOS>MOLECULE
*****
 50 57 0 0 0
SMALL
GASTEIGER

@<TRIPOS>ATOM
      1 C          -3.1281   -3.6567    0.8187 C.3     1  UNL1        0.0000
      2 C          -4.2915   -2.7651    0.5105 C.2     1  UNL1        0.0000
      3 C          -3.8351   -1.5312    0.2658 C.ar    1  UNL1        0.0000
      4 C          -4.5089   -0.3087    0.0780 C.ar    1  UNL1        0.0000
      5 C          -5.8672    0.0205   -0.0674 C.ar    1  UNL1        0.0000
      6 C          -5.8888    1.3890   -0.1836 C.ar    1  UNL1        0.0000
      7 O          -4.6331    1.9013   -0.1124 O.2     1  UNL1        0.0000
      8 C          -3.7465    0.8577    0.0577 C.ar    1  UNL1        0.0000
      9 C          -2.2956    0.9464    0.1577 C.ar    1  UNL1        0.0000
     10 C          -1.5986   -0.2425    0.1244 C.ar    1  UNL1        0.0000
     11 C          -0.1122   -0.1829   -0.0197 C.ar    1  UNL1        0.0000
     12 C           0.6998   -1.1682   -0.6127 C.ar    1  UNL1        0.0000
     13 C           0.3077   -2.2451   -1.3762 C.ar    1  UNL1        0.0000
     14 N           1.4385   -2.9098   -1.7902 N.ar    1  UNL1        0.0000
     15 C           2.5598   -2.2342   -1.3730 C.ar    1  UNL1        0.0000
     16 C           2.1396   -1.1349   -0.6603 C.ar    1  UNL1        0.0000
     17 C           2.9379   -0.1063   -0.1477 C.ar    1  UNL1        0.0000
     18 C           2.1283    0.9640    0.3028 C.ar    1  UNL1        0.0000
     19 C           0.6817    0.9560    0.3305 C.ar    1  UNL1        0.0000
     20 C          -0.0824    2.2014    0.5804 C.ar    1  UNL1        0.0000
     21 C           0.4443    3.4038    0.8987 C.2     1  UNL1        0.0000
     22 SI         -0.8643    4.7317    0.9573 Si      1  UNL1        0.0000
     23 C          -2.1114    3.4255    0.5226 C.2     1  UNL1        0.0000
     24 C          -1.5541    2.2028    0.3785 C.ar    1  UNL1        0.0000
     25 C           4.3905   -0.0797   -0.1832 C.2     1  UNL1        0.0000
     26 C           5.2421   -1.0861    0.0802 C.2     1  UNL1        0.0000
     27 C           6.5989   -0.6213   -0.0491 C.2     1  UNL1        0.0000
     28 C           6.5947    0.6772   -0.3795 C.2     1  UNL1        0.0000
     29 C           5.1785    1.1680   -0.4903 C.3     1  UNL1        0.0000
     30 C          -2.3729   -1.4922    0.3308 C.ar    1  UNL1        0.0000
     31 C          -1.9617   -2.7153    0.7144 C.2     1  UNL1        0.0000
     32 H          -3.2076   -4.0690    1.8289 H       1  UNL1        0.0000
     33 H          -3.0460   -4.4707    0.0928 H       1  UNL1        0.0000
     34 H          -5.3262   -3.0647    0.5631 H       1  UNL1        0.0000
     35 H          -6.7218   -0.6394   -0.0846 H       1  UNL1        0.0000
     36 H          -6.6783    2.1155   -0.3143 H       1  UNL1        0.0000
     37 H          -0.6637   -2.5989   -1.6920 H       1  UNL1        0.0000
     38 H           1.4434   -3.7379   -2.3715 H       1  UNL1        0.0000
     39 H           3.5408   -2.5792   -1.6683 H       1  UNL1        0.0000
     40 H           2.6415    1.8636    0.6355 H       1  UNL1        0.0000
     41 H           1.4750    3.6650    1.0671 H       1  UNL1        0.0000
     42 H          -0.6843    5.7422   -0.1130 H       1  UNL1        0.0000
     43 H          -1.0485    5.2775    2.3237 H       1  UNL1        0.0000
     44 H          -3.1549    3.6859    0.4621 H       1  UNL1        0.0000
     45 H           4.9812   -2.0935    0.3674 H       1  UNL1        0.0000
     46 H           7.4698   -1.2404    0.1036 H       1  UNL1        0.0000
     47 H           7.4688    1.2893   -0.5411 H       1  UNL1        0.0000
     48 H           4.9726    1.5344   -1.5010 H       1  UNL1        0.0000
     49 H           4.9955    1.9630    0.2391 H       1  UNL1        0.0000
     50 H          -0.9472   -3.0079    0.9387 H       1  UNL1        0.0000
@<TRIPOS>BOND
     1     1     2    1
     2     2     3    2
     3     3     4   ar
     4     4     5   ar
     5     5     6   ar
     6     6     7   ar
     7     7     8   ar
     8     8     9   ar
     9     9    10   ar
    10    10    11   ar
    11    11    12   ar
    12    12    13   ar
    13    13    14   ar
    14    14    15   ar
    15    15    16   ar
    16    16    17   ar
    17    17    18   ar
    18    18    19   ar
    19    19    20   ar
    20    20    21    2
    21    21    22    1
    22    22    23    1
    23    23    24    2
    24    17    25    1
    25    25    26    2
    26    26    27    1
    27    27    28    2
    28    28    29    1
    29    10    30   ar
    30    30    31    2
    31    31     1    1
    32    30     3   ar
    33     8     4   ar
    34    24     9   ar
    35    29    25    1
    36    19    11   ar
    37    24    20   ar
    38    16    12   ar
    39     1    32    1
    40     1    33    1
    41     2    34    1
    42     5    35    1
    43     6    36    1
    44    13    37    1
    45    14    38    1
    46    15    39    1
    47    18    40    1
    48    21    41    1
    49    22    42    1
    50    22    43    1
    51    23    44    1
    52    26    45    1
    53    27    46    1
    54    28    47    1
    55    29    48    1
    56    29    49    1
    57    31    50    1
