@<TRIPOS>MOLECULE
*****
 36 41 0 0 0
SMALL
GASTEIGER

@<TRIPOS>ATOM
      1 C          -2.7630   -3.3938    0.6080 C.3     1  UNL1       -0.0148
      2 C          -3.6446   -2.2104    0.3347 C.2     1  UNL1       -0.0718
      3 C          -2.8816   -1.1305    0.1247 C.ar    1  UNL1       -0.0104
      4 C          -3.2297    0.2104   -0.1706 C.ar    1  UNL1        0.0282
      5 C          -4.4369    0.9076   -0.3489 C.ar    1  UNL1       -0.0155
      6 C          -4.0693    2.2123   -0.6180 C.ar    1  UNL1        0.0932
      7 O          -2.7106    2.3534   -0.6147 O.2     1  UNL1       -0.4623
      8 C          -2.2100    1.1237   -0.3413 C.ar    1  UNL1        0.1437
      9 C          -0.7921    0.8509   -0.2472 C.ar    1  UNL1        0.0347
     10 C           0.2739    1.7329   -0.4265 C.ar    1  UNL1        0.0113
     11 C           0.2298    3.0657   -0.7527 C.ar    1  UNL1        0.0101
     12 N           1.5289    3.5076   -0.8558 N.ar    1  UNL1       -0.3659
     13 C           2.4052    2.4741   -0.6018 C.ar    1  UNL1        0.0101
     14 C           1.6570    1.3582   -0.3076 C.ar    1  UNL1        0.0098
     15 C           2.1038    0.0643    0.0070 C.ar    1  UNL1        0.0168
     16 C           1.0244   -0.8502    0.1634 C.ar    1  UNL1       -0.0430
     17 C          -0.3620   -0.4923    0.0527 C.ar    1  UNL1       -0.0056
     18 C          -1.4561   -1.4941    0.2385 C.ar    1  UNL1       -0.0133
     19 C          -1.3808   -2.8069    0.5189 C.2     1  UNL1       -0.0719
     20 C           3.4922   -0.3492    0.1326 C.ar    1  UNL1        0.1088
     21 N           3.9924   -1.4330   -0.4311 N.ar    1  UNL1       -0.2473
     22 C           5.3185   -1.5825   -0.0786 C.ar    1  UNL1        0.0354
     23 C           5.8144   -0.6321    0.7847 C.ar    1  UNL1       -0.0042
     24 S           4.5805    0.4880    1.1769 S.2     1  UNL1       -0.0757
     25 H          -2.9518   -3.8034    1.6047 H       1  UNL1        0.0350
     26 H          -2.9071   -4.1742   -0.1450 H       1  UNL1        0.0350
     27 H          -4.7226   -2.2421    0.3130 H       1  UNL1        0.0581
     28 H          -5.4463    0.5277   -0.2925 H       1  UNL1        0.0655
     29 H          -4.6250    3.1162   -0.8243 H       1  UNL1        0.1030
     30 H          -0.5942    3.7425   -0.9345 H       1  UNL1        0.0813
     31 H           1.8002    4.4515   -1.0995 H       1  UNL1        0.1648
     32 H           3.4707    2.6466   -0.6659 H       1  UNL1        0.0813
     33 H           1.2831   -1.8862    0.3834 H       1  UNL1        0.0631
     34 H          -0.4816   -3.3855    0.6626 H       1  UNL1        0.0581
     35 H           5.8815   -2.4163   -0.4800 H       1  UNL1        0.0835
     36 H           6.8087   -0.5506    1.1987 H       1  UNL1        0.0709
@<TRIPOS>BOND
     1     1     2    1
     2     2     3    2
     3     3     4   ar
     4     4     5   ar
     5     5     6   ar
     6     6     7   ar
     7     7     8   ar
     8     8     9   ar
     9     9    10   ar
    10    10    11   ar
    11    11    12   ar
    12    12    13   ar
    13    13    14   ar
    14    14    15   ar
    15    15    16   ar
    16    16    17   ar
    17    17    18   ar
    18    18    19    2
    19    15    20    1
    20    20    21   ar
    21    21    22   ar
    22    22    23   ar
    23    23    24   ar
    24    19     1    1
    25    24    20   ar
    26    18     3   ar
    27     8     4   ar
    28    17     9   ar
    29    14    10   ar
    30     1    25    1
    31     1    26    1
    32     2    27    1
    33     5    28    1
    34     6    29    1
    35    11    30    1
    36    12    31    1
    37    13    32    1
    38    16    33    1
    39    19    34    1
    40    22    35    1
    41    23    36    1
