@<TRIPOS>MOLECULE
*****
 40 46 0 0 0
SMALL
GASTEIGER

@<TRIPOS>ATOM
      1 C          -1.5347   -3.6030    1.4130 C.3     1  UNL1       -0.0148
      2 C          -2.8825   -3.0041    1.1687 C.2     1  UNL1       -0.0718
      3 C          -2.7322   -1.7665    0.6810 C.ar    1  UNL1       -0.0104
      4 C          -3.7062   -0.8139    0.2992 C.ar    1  UNL1        0.0282
      5 C          -5.1122   -0.7935    0.2829 C.ar    1  UNL1       -0.0155
      6 C          -5.4531    0.4502   -0.2102 C.ar    1  UNL1        0.0932
      7 O          -4.3402    1.1870   -0.4946 O.2     1  UNL1       -0.4623
      8 C          -3.2773    0.4056   -0.1798 C.ar    1  UNL1        0.1437
      9 C          -1.8995    0.8374   -0.3422 C.ar    1  UNL1        0.0357
     10 C          -1.4512    2.0759   -0.8286 C.ar    1  UNL1        0.0011
     11 C          -2.2556    3.1168   -1.2445 C.ar    1  UNL1       -0.0159
     12 S          -1.3504    4.4898   -1.7813 S.2     1  UNL1       -0.1038
     13 C           0.1518    3.7146   -1.4662 C.ar    1  UNL1       -0.0160
     14 C          -0.0956    2.4666   -0.9748 C.ar    1  UNL1       -0.0010
     15 C           0.9025    1.5193   -0.5947 C.ar    1  UNL1        0.0091
     16 C           2.2915    1.6520   -0.6387 C.ar    1  UNL1       -0.0275
     17 C           2.7876    0.4521   -0.1617 C.ar    1  UNL1        0.0542
     18 N           1.7018   -0.3489    0.1479 N.ar    1  UNL1       -0.3532
     19 C           0.5019    0.2824   -0.1087 C.ar    1  UNL1        0.0560
     20 C          -0.8596   -0.0981    0.0334 C.ar    1  UNL1        0.0176
     21 C          -1.2951   -1.4309    0.5569 C.ar    1  UNL1       -0.0113
     22 C          -0.6014   -2.5026    0.9840 C.2     1  UNL1       -0.0719
     23 C           4.1498    0.0234    0.0160 C.ar    1  UNL1        0.0355
     24 C           5.2948    0.7463   -0.2622 C.ar    1  UNL1       -0.0455
     25 C           6.4892    0.0238    0.0305 C.ar    1  UNL1       -0.0541
     26 C           6.2215   -1.2319    0.5244 C.ar    1  UNL1       -0.0237
     27 S           4.5430   -1.5319    0.6323 S.2     1  UNL1       -0.0952
     28 H          -1.3857   -4.5015    0.8069 H       1  UNL1        0.0350
     29 H          -1.3954   -3.8447    2.4708 H       1  UNL1        0.0350
     30 H          -3.8192   -3.5037    1.3604 H       1  UNL1        0.0581
     31 H          -5.7990   -1.5703    0.5856 H       1  UNL1        0.0655
     32 H          -6.3952    0.9416   -0.4097 H       1  UNL1        0.1030
     33 H          -3.3332    3.1817   -1.2766 H       1  UNL1        0.0700
     34 H           1.0884    4.2174   -1.6591 H       1  UNL1        0.0700
     35 H           2.8748    2.4997   -0.9699 H       1  UNL1        0.0645
     36 H           1.8047   -1.2796    0.5162 H       1  UNL1        0.1659
     37 H           0.4635   -2.6304    1.0406 H       1  UNL1        0.0581
     38 H           5.2853    1.7537   -0.6598 H       1  UNL1        0.0629
     39 H           7.4914    0.4079   -0.1148 H       1  UNL1        0.0623
     40 H           6.9311   -1.9895    0.8278 H       1  UNL1        0.0693
@<TRIPOS>BOND
     1     1     2    1
     2     2     3    2
     3     3     4   ar
     4     4     5   ar
     5     5     6   ar
     6     6     7   ar
     7     7     8   ar
     8     8     9   ar
     9     9    10   ar
    10    10    11   ar
    11    11    12   ar
    12    12    13   ar
    13    13    14   ar
    14    14    15   ar
    15    15    16   ar
    16    16    17   ar
    17    17    18   ar
    18    18    19   ar
    19    19    20   ar
    20    20    21   ar
    21    21    22    2
    22    17    23    1
    23    23    24   ar
    24    24    25   ar
    25    25    26   ar
    26    26    27   ar
    27    22     1    1
    28    27    23   ar
    29    21     3   ar
    30     8     4   ar
    31    20     9   ar
    32    14    10   ar
    33    19    15   ar
    34     1    28    1
    35     1    29    1
    36     2    30    1
    37     5    31    1
    38     6    32    1
    39    11    33    1
    40    13    34    1
    41    16    35    1
    42    18    36    1
    43    22    37    1
    44    24    38    1
    45    25    39    1
    46    26    40    1
