@<TRIPOS>MOLECULE
*****
 39 45 0 0 0
SMALL
GASTEIGER

@<TRIPOS>ATOM
      1 C          -1.8689    2.9839    0.5230 C.3     1  UNL1       -0.0148
      2 C          -3.2646    2.4378    0.4059 C.2     1  UNL1       -0.0718
      3 C          -3.2045    1.1256    0.1491 C.ar    1  UNL1       -0.0102
      4 C          -4.2223    0.1568   -0.0482 C.ar    1  UNL1        0.0297
      5 C          -5.6277    0.1773   -0.0544 C.ar    1  UNL1       -0.0155
      6 C          -6.0133   -1.1253   -0.3125 C.ar    1  UNL1        0.0932
      7 O          -4.9292   -1.9426   -0.4648 O.2     1  UNL1       -0.4607
      8 C          -3.8417   -1.1480   -0.3012 C.ar    1  UNL1        0.1613
      9 C          -2.4774   -1.6597   -0.3916 C.ar    1  UNL1        0.1178
     10 N          -2.2894   -2.9763   -0.6483 N.ar    1  UNL1       -0.2504
     11 C          -1.0182   -3.4429   -0.7305 C.ar    1  UNL1        0.0392
     12 C           0.0690   -2.5796   -0.5535 C.ar    1  UNL1        0.0395
     13 C           1.4841   -2.7111   -0.5689 C.ar    1  UNL1       -0.0060
     14 C           2.0319   -1.4590   -0.3196 C.ar    1  UNL1        0.1450
     15 O           0.9981   -0.5723   -0.1533 O.2     1  UNL1       -0.4535
     16 C          -0.1789   -1.2381   -0.2923 C.ar    1  UNL1        0.1470
     17 C          -1.4550   -0.7098   -0.1980 C.ar    1  UNL1        0.0542
     18 C          -1.7952    0.6971    0.0753 C.ar    1  UNL1       -0.0083
     19 C          -1.0143    1.7683    0.2910 C.2     1  UNL1       -0.0718
     20 C           3.4149   -1.0579   -0.2309 C.ar    1  UNL1        0.0819
     21 S           4.6976   -2.1980   -0.4445 S.2     1  UNL1       -0.0893
     22 C           5.9170   -1.0210   -0.2052 C.ar    1  UNL1        0.0039
     23 C           5.3741    0.2136    0.0324 C.ar    1  UNL1        0.0969
     24 N           6.1377    1.3192    0.2543 N.ar    1  UNL1       -0.2514
     25 C           5.3536    2.4114    0.4622 C.ar    1  UNL1        0.0464
     26 C           3.9544    2.4113    0.4519 C.ar    1  UNL1        0.0464
     27 N           3.1722    1.3207    0.2327 N.ar    1  UNL1       -0.2507
     28 C           3.9279    0.2015    0.0193 C.ar    1  UNL1        0.1069
     29 H          -1.6804    3.7472   -0.2377 H       1  UNL1        0.0350
     30 H          -1.6931    3.4031    1.5181 H       1  UNL1        0.0350
     31 H          -4.1627    3.0255    0.5146 H       1  UNL1        0.0581
     32 H          -6.2881    1.0170    0.1054 H       1  UNL1        0.0655
     33 H          -6.9726   -1.6132   -0.4151 H       1  UNL1        0.1030
     34 H          -0.9082   -4.5017   -0.9373 H       1  UNL1        0.0837
     35 H           2.0379   -3.6232   -0.7436 H       1  UNL1        0.0662
     36 H           0.0664    1.7799    0.3012 H       1  UNL1        0.0581
     37 H           6.9635   -1.2856   -0.2492 H       1  UNL1        0.0715
     38 H           5.8968    3.3341    0.6467 H       1  UNL1        0.0845
     39 H           3.4087    3.3340    0.6284 H       1  UNL1        0.0845
@<TRIPOS>BOND
     1     1     2    1
     2     2     3    2
     3     3     4   ar
     4     4     5   ar
     5     5     6   ar
     6     6     7   ar
     7     7     8   ar
     8     8     9   ar
     9     9    10   ar
    10    10    11   ar
    11    11    12   ar
    12    12    13   ar
    13    13    14   ar
    14    14    15   ar
    15    15    16   ar
    16    16    17   ar
    17    17    18   ar
    18    18    19    2
    19    14    20    1
    20    20    21   ar
    21    21    22   ar
    22    22    23   ar
    23    23    24   ar
    24    24    25   ar
    25    25    26   ar
    26    26    27   ar
    27    27    28   ar
    28    19     1    1
    29    28    20   ar
    30    18     3   ar
    31    28    23   ar
    32     8     4   ar
    33    17     9   ar
    34    16    12   ar
    35     1    29    1
    36     1    30    1
    37     2    31    1
    38     5    32    1
    39     6    33    1
    40    11    34    1
    41    13    35    1
    42    19    36    1
    43    22    37    1
    44    25    38    1
    45    26    39    1
