@<TRIPOS>MOLECULE
*****
 38 44 0 0 0
SMALL
GASTEIGER

@<TRIPOS>ATOM
      1 C          -2.3601   -3.3336    1.0439 C.3     1  UNL1       -0.0148
      2 C          -3.4920   -2.4355    0.6719 C.2     1  UNL1       -0.0719
      3 C          -3.0094   -1.2468    0.2815 C.ar    1  UNL1       -0.0129
      4 C          -3.7159   -0.0922   -0.1581 C.ar    1  UNL1       -0.0028
      5 C          -5.1239    0.0674   -0.2863 C.ar    1  UNL1       -0.0464
      6 C          -5.4474    1.3241   -0.7417 C.ar    1  UNL1       -0.0231
      7 S          -4.0601    2.2813   -1.0046 S.2     1  UNL1       -0.0960
      8 C          -2.9939    1.0398   -0.5162 C.ar    1  UNL1        0.0283
      9 C          -1.5196    1.1222   -0.4692 C.ar    1  UNL1        0.0088
     10 C          -0.7107    2.2145   -0.8093 C.ar    1  UNL1        0.0293
     11 C          -1.0561    3.4702   -1.2657 C.ar    1  UNL1        0.1000
     12 O           0.0564    4.2469   -1.4800 O.2     1  UNL1       -0.4698
     13 C           1.1478    3.4907   -1.1599 C.ar    1  UNL1        0.1000
     14 C           0.6911    2.2751   -0.7586 C.ar    1  UNL1        0.0287
     15 C           1.4229    1.1368   -0.3236 C.ar    1  UNL1        0.0012
     16 C           2.8256    1.0808   -0.2323 C.ar    1  UNL1       -0.0365
     17 C           3.2270   -0.1605    0.2214 C.ar    1  UNL1        0.0455
     18 S           1.8691   -1.1747    0.5064 S.2     1  UNL1       -0.0855
     19 C           0.6908    0.0093    0.0327 C.ar    1  UNL1        0.0290
     20 C          -0.7507   -0.0302   -0.0273 C.ar    1  UNL1        0.0056
     21 C          -1.5385   -1.2426    0.3557 C.ar    1  UNL1       -0.0124
     22 C          -1.1661   -2.4586    0.7998 C.2     1  UNL1       -0.0719
     23 C           4.5707   -0.6425    0.4580 C.ar    1  UNL1        0.1148
     24 N           4.8272   -1.8601    0.8961 N.ar    1  UNL1       -0.2468
     25 C           6.1885   -2.0447    1.0295 C.ar    1  UNL1        0.0355
     26 C           6.9695   -0.9632    0.6916 C.ar    1  UNL1       -0.0042
     27 S           5.9696    0.3322    0.1888 S.2     1  UNL1       -0.0752
     28 H          -2.3335   -4.2227    0.4073 H       1  UNL1        0.0350
     29 H          -2.4204   -3.6335    2.0942 H       1  UNL1        0.0350
     30 H          -4.5310   -2.7213    0.7183 H       1  UNL1        0.0581
     31 H          -5.8648   -0.6889   -0.0603 H       1  UNL1        0.0629
     32 H          -6.4327    1.7263   -0.9328 H       1  UNL1        0.0694
     33 H          -1.9787    3.9822   -1.4920 H       1  UNL1        0.1036
     34 H           2.1088    3.9694   -1.2779 H       1  UNL1        0.1036
     35 H           3.5061    1.8859   -0.4788 H       1  UNL1        0.0636
     36 H          -0.1723   -2.8285    0.9803 H       1  UNL1        0.0581
     37 H           6.5607   -2.9993    1.3816 H       1  UNL1        0.0835
     38 H           8.0460   -0.8757    0.7155 H       1  UNL1        0.0709
@<TRIPOS>BOND
     1     1     2    1
     2     2     3    2
     3     3     4   ar
     4     4     5   ar
     5     5     6   ar
     6     6     7   ar
     7     7     8   ar
     8     8     9   ar
     9     9    10   ar
    10    10    11   ar
    11    11    12   ar
    12    12    13   ar
    13    13    14   ar
    14    14    15   ar
    15    15    16   ar
    16    16    17   ar
    17    17    18   ar
    18    18    19   ar
    19    19    20   ar
    20    20    21   ar
    21    21    22    2
    22    17    23    1
    23    23    24   ar
    24    24    25   ar
    25    25    26   ar
    26    26    27   ar
    27    22     1    1
    28    27    23   ar
    29    21     3   ar
    30     8     4   ar
    31    20     9   ar
    32    14    10   ar
    33    19    15   ar
    34     1    28    1
    35     1    29    1
    36     2    30    1
    37     5    31    1
    38     6    32    1
    39    11    33    1
    40    13    34    1
    41    16    35    1
    42    22    36    1
    43    25    37    1
    44    26    38    1
