@<TRIPOS>MOLECULE
*****
 40 45 0 0 0
SMALL
GASTEIGER

@<TRIPOS>ATOM
      1 SI         -1.1953   -3.8305   -0.0374 Si      1  UNL1        0.0000
      2 C          -2.3678   -2.4196    0.2285 C.2     1  UNL1        0.0000
      3 C          -1.7350   -1.2268    0.1942 C.ar    1  UNL1        0.0000
      4 C          -2.4189    0.0659    0.2225 C.ar    1  UNL1        0.0000
      5 C          -1.6693    1.1756    0.0680 C.ar    1  UNL1        0.0000
      6 C          -0.1939    1.1531   -0.0619 C.ar    1  UNL1        0.0000
      7 C           0.4451    2.3872   -0.2431 C.ar    1  UNL1        0.0000
      8 C           1.8290    2.4615   -0.2832 C.ar    1  UNL1        0.0000
      9 C           2.5887    1.3033   -0.0658 C.ar    1  UNL1        0.0000
     10 C           3.9944    1.4187   -0.0301 C.ar    1  UNL1        0.0000
     11 O           4.7244    2.5560   -0.2451 O.2     1  UNL1        0.0000
     12 C           6.0338    2.2232   -0.1132 C.ar    1  UNL1        0.0000
     13 C           6.1652    0.8891    0.1921 C.ar    1  UNL1        0.0000
     14 C           4.8489    0.3608    0.2488 C.ar    1  UNL1        0.0000
     15 C           4.2850   -0.8884    0.5300 C.ar    1  UNL1        0.0000
     16 C           2.8834   -1.0254    0.4861 C.ar    1  UNL1        0.0000
     17 C           1.9942    0.0310    0.1471 C.ar    1  UNL1        0.0000
     18 C           0.5634   -0.0524    0.0460 C.ar    1  UNL1        0.0000
     19 C          -0.2529   -1.3107    0.0455 C.ar    1  UNL1        0.0000
     20 C           0.1761   -2.5705   -0.1902 C.2     1  UNL1        0.0000
     21 C          -3.8244    0.2680    0.3358 C.ar    1  UNL1        0.0000
     22 C          -4.6329    0.8888    1.2682 C.ar    1  UNL1        0.0000
     23 C          -5.9713    0.7798    0.8171 C.ar    1  UNL1        0.0000
     24 C          -5.9460    0.1050   -0.3826 C.ar    1  UNL1        0.0000
     25 N          -4.6396   -0.1965   -0.6697 N.ar    1  UNL1        0.0000
     26 H          -1.0377   -4.6911    1.1593 H       1  UNL1        0.0000
     27 H          -1.4453   -4.5444   -1.3127 H       1  UNL1        0.0000
     28 H          -3.4270   -2.5946    0.3316 H       1  UNL1        0.0000
     29 H          -2.1412    2.1552    0.0541 H       1  UNL1        0.0000
     30 H          -0.1311    3.3034   -0.3501 H       1  UNL1        0.0000
     31 H           2.3099    3.4255   -0.4337 H       1  UNL1        0.0000
     32 H           6.7370    3.0312   -0.2594 H       1  UNL1        0.0000
     33 H           7.0937    0.3628    0.3597 H       1  UNL1        0.0000
     34 H           4.9089   -1.7371    0.7946 H       1  UNL1        0.0000
     35 H           2.4953   -1.9932    0.7860 H       1  UNL1        0.0000
     36 H           1.1594   -2.9166   -0.4516 H       1  UNL1        0.0000
     37 H          -4.2927    1.3636    2.1795 H       1  UNL1        0.0000
     38 H          -6.8562    1.1559    1.3138 H       1  UNL1        0.0000
     39 H          -6.7409   -0.1833   -1.0569 H       1  UNL1        0.0000
     40 H          -4.3160   -0.6835   -1.4954 H       1  UNL1        0.0000
@<TRIPOS>BOND
     1     1     2    1
     2     2     3    2
     3     3     4   ar
     4     4     5   ar
     5     5     6   ar
     6     6     7   ar
     7     7     8   ar
     8     8     9   ar
     9     9    10   ar
    10    10    11   ar
    11    11    12   ar
    12    12    13   ar
    13    13    14   ar
    14    14    15   ar
    15    15    16   ar
    16    16    17   ar
    17    17    18   ar
    18    18    19   ar
    19    19    20    2
    20     4    21    1
    21    21    22   ar
    22    22    23   ar
    23    23    24   ar
    24    24    25   ar
    25    20     1    1
    26    25    21   ar
    27    19     3   ar
    28    18     6   ar
    29    17     9   ar
    30    14    10   ar
    31     1    26    1
    32     1    27    1
    33     2    28    1
    34     5    29    1
    35     7    30    1
    36     8    31    1
    37    12    32    1
    38    13    33    1
    39    15    34    1
    40    16    35    1
    41    20    36    1
    42    22    37    1
    43    23    38    1
    44    24    39    1
    45    25    40    1
