@<TRIPOS>MOLECULE
*****
 45 52 0 0 0
SMALL
GASTEIGER

@<TRIPOS>ATOM
      1 C          -3.3611    3.6452    0.0951 C.3     1  UNL1        0.0000
      2 C          -4.4588    2.6723   -0.1678 C.2     1  UNL1        0.0000
      3 C          -3.9649    1.4260   -0.1423 C.ar    1  UNL1        0.0000
      4 C          -4.6507    0.1917   -0.2884 C.ar    1  UNL1        0.0000
      5 C          -6.0218   -0.0018   -0.6162 C.ar    1  UNL1        0.0000
      6 C          -6.3257   -1.3374   -0.7281 C.ar    1  UNL1        0.0000
      7 S          -4.9597   -2.3206   -0.4600 S.2     1  UNL1        0.0000
      8 C          -3.9430   -0.9898   -0.1076 C.ar    1  UNL1        0.0000
      9 C          -2.4955   -1.0494    0.2207 C.ar    1  UNL1        0.0000
     10 C          -1.7325   -2.2185    0.5035 C.ar    1  UNL1        0.0000
     11 C          -2.2124   -3.4885    0.7373 C.ar    1  UNL1        0.0000
     12 S          -0.9712   -4.6412    1.0241 S.2     1  UNL1        0.0000
     13 C           0.2474   -3.4497    0.8975 C.ar    1  UNL1        0.0000
     14 C          -0.2845   -2.2062    0.6481 C.ar    1  UNL1        0.0000
     15 C           0.4858   -1.0509    0.5313 C.ar    1  UNL1        0.0000
     16 C           1.9470   -0.9624    0.6017 C.2     1  UNL1        0.0000
     17 C           2.4133    0.2904    0.4443 C.2     1  UNL1        0.0000
     18 SI          1.0399    1.5256    0.1643 Si      1  UNL1        0.0000
     19 C          -0.2743    0.1493    0.3203 C.ar    1  UNL1        0.0000
     20 C          -1.7088    0.1869    0.2162 C.ar    1  UNL1        0.0000
     21 C          -2.5157    1.4501    0.1063 C.ar    1  UNL1        0.0000
     22 C          -2.1754    2.7429    0.2774 C.2     1  UNL1        0.0000
     23 C           3.7971    0.6147    0.4175 C.ar    1  UNL1        0.0000
     24 S           4.4168    1.9298    1.3719 S.2     1  UNL1        0.0000
     25 C           6.0304    1.6836    0.8577 C.ar    1  UNL1        0.0000
     26 C           6.1210    0.6298   -0.0106 C.ar    1  UNL1        0.0000
     27 N           7.2993    0.2288   -0.5637 N.ar    1  UNL1        0.0000
     28 C           7.1038   -0.8362   -1.3883 C.ar    1  UNL1        0.0000
     29 C           5.8684   -1.4442   -1.6407 C.ar    1  UNL1        0.0000
     30 N           4.6802   -1.0615   -1.0993 N.ar    1  UNL1        0.0000
     31 C           4.8421    0.0088   -0.2638 C.ar    1  UNL1        0.0000
     32 H          -3.2157    4.3223   -0.7515 H       1  UNL1        0.0000
     33 H          -3.5559    4.2249    1.0021 H       1  UNL1        0.0000
     34 H          -5.4898    2.9498   -0.3212 H       1  UNL1        0.0000
     35 H          -6.7462    0.7856   -0.7804 H       1  UNL1        0.0000
     36 H          -7.2796   -1.7819   -0.9760 H       1  UNL1        0.0000
     37 H          -3.2221   -3.8589    0.7839 H       1  UNL1        0.0000
     38 H           1.2802   -3.7386    1.0304 H       1  UNL1        0.0000
     39 H           2.5741   -1.8324    0.7419 H       1  UNL1        0.0000
     40 H           0.9375    2.5155    1.2693 H       1  UNL1        0.0000
     41 H           1.0612    2.1256   -1.1949 H       1  UNL1        0.0000
     42 H          -1.2211    3.1590    0.5406 H       1  UNL1        0.0000
     43 H           6.8300    2.3159    1.2151 H       1  UNL1        0.0000
     44 H           8.0034   -1.2120   -1.8680 H       1  UNL1        0.0000
     45 H           5.8074   -2.2923   -2.3172 H       1  UNL1        0.0000
@<TRIPOS>BOND
     1     1     2    1
     2     2     3    2
     3     3     4   ar
     4     4     5   ar
     5     5     6   ar
     6     6     7   ar
     7     7     8   ar
     8     8     9   ar
     9     9    10   ar
    10    10    11   ar
    11    11    12   ar
    12    12    13   ar
    13    13    14   ar
    14    14    15   ar
    15    15    16    1
    16    16    17    2
    17    17    18    1
    18    18    19    1
    19    19    20   ar
    20    20    21   ar
    21    21    22    2
    22    17    23    1
    23    23    24   ar
    24    24    25   ar
    25    25    26   ar
    26    26    27   ar
    27    27    28   ar
    28    28    29   ar
    29    29    30   ar
    30    30    31   ar
    31    22     1    1
    32    31    23   ar
    33    21     3   ar
    34    31    26   ar
    35     8     4   ar
    36    20     9   ar
    37    14    10   ar
    38    19    15   ar
    39     1    32    1
    40     1    33    1
    41     2    34    1
    42     5    35    1
    43     6    36    1
    44    11    37    1
    45    13    38    1
    46    16    39    1
    47    18    40    1
    48    18    41    1
    49    22    42    1
    50    25    43    1
    51    28    44    1
    52    29    45    1
