@<TRIPOS>MOLECULE
*****
 45 52 0 0 0
SMALL
GASTEIGER

@<TRIPOS>ATOM
      1 C          -3.6476   -3.6059    0.0140 C.3     1  UNL1       -0.0148
      2 C          -4.6933   -2.5609   -0.1998 C.2     1  UNL1       -0.0719
      3 C          -4.1214   -1.3486   -0.1757 C.ar    1  UNL1       -0.0130
      4 C          -4.7277   -0.0643   -0.2025 C.ar    1  UNL1       -0.0028
      5 C          -6.0868    0.2541   -0.4714 C.ar    1  UNL1       -0.0464
      6 C          -6.2945    1.6136   -0.4520 C.ar    1  UNL1       -0.0231
      7 S          -4.8548    2.4730   -0.1335 S.2     1  UNL1       -0.0960
      8 C          -3.9359    1.0448    0.0690 C.ar    1  UNL1        0.0282
      9 C          -2.4814    0.9740    0.3407 C.ar    1  UNL1        0.0058
     10 C          -1.6286    2.0111    0.7710 C.ar    1  UNL1       -0.0015
     11 C          -2.0244    3.2367    1.2593 C.ar    1  UNL1       -0.0160
     12 S          -0.7045    4.2437    1.6891 S.2     1  UNL1       -0.1038
     13 C           0.4289    3.0315    1.2768 C.ar    1  UNL1       -0.0160
     14 C          -0.1830    1.8821    0.8262 C.ar    1  UNL1       -0.0024
     15 C           0.5367    0.7205    0.4305 C.ar    1  UNL1       -0.0056
     16 C           1.9488    0.6034    0.4018 C.ar    1  UNL1       -0.0268
     17 C           2.5167   -0.5743   -0.0518 C.ar    1  UNL1        0.0788
     18 N           1.7642   -1.6034   -0.4862 N.ar    1  UNL1       -0.2538
     19 C           0.4121   -1.4635   -0.4409 C.ar    1  UNL1        0.0366
     20 C          -0.3086   -0.3596    0.0432 C.ar    1  UNL1        0.0092
     21 C          -1.7705   -0.2714    0.1096 C.ar    1  UNL1        0.0004
     22 C          -2.6682   -1.4729   -0.0059 C.ar    1  UNL1       -0.0128
     23 C          -2.4024   -2.7819    0.1735 C.2     1  UNL1       -0.0719
     24 C           3.9646   -0.7615   -0.1191 C.ar    1  UNL1        0.0467
     25 S           4.6825   -2.3424    0.1008 S.2     1  UNL1       -0.0924
     26 C           6.3086   -1.7672   -0.0800 C.ar    1  UNL1        0.0002
     27 C           6.2530   -0.4390   -0.2965 C.ar    1  UNL1        0.0542
     28 N           7.3106    0.3988   -0.4971 N.ar    1  UNL1       -0.3602
     29 C           6.6598    1.6178   -0.6728 C.ar    1  UNL1        0.0028
     30 C           5.2588    1.4772   -0.5759 C.ar    1  UNL1       -0.0355
     31 C           4.9878    0.1049   -0.3177 C.ar    1  UNL1        0.0159
     32 H          -3.8514   -4.1850    0.9195 H       1  UNL1        0.0350
     33 H          -3.5710   -4.2784   -0.8452 H       1  UNL1        0.0350
     34 H          -5.7485   -2.7688   -0.2848 H       1  UNL1        0.0581
     35 H          -6.8696   -0.4623   -0.6858 H       1  UNL1        0.0629
     36 H          -7.2187    2.1453   -0.6317 H       1  UNL1        0.0694
     37 H          -3.0118    3.6354    1.4257 H       1  UNL1        0.0700
     38 H           1.4794    3.2459    1.4087 H       1  UNL1        0.0700
     39 H           2.5850    1.4154    0.7305 H       1  UNL1        0.0645
     40 H          -0.0916   -2.3137   -0.8893 H       1  UNL1        0.0836
     41 H          -1.4614   -3.2350    0.4419 H       1  UNL1        0.0581
     42 H           7.1657   -2.4225   -0.0201 H       1  UNL1        0.0714
     43 H           8.2962    0.1665   -0.5151 H       1  UNL1        0.1653
     44 H           7.2515    2.5041   -0.8642 H       1  UNL1        0.0807
     45 H           4.5466    2.2829   -0.6929 H       1  UNL1        0.0639
@<TRIPOS>BOND
     1     1     2    1
     2     2     3    2
     3     3     4   ar
     4     4     5   ar
     5     5     6   ar
     6     6     7   ar
     7     7     8   ar
     8     8     9   ar
     9     9    10   ar
    10    10    11   ar
    11    11    12   ar
    12    12    13   ar
    13    13    14   ar
    14    14    15   ar
    15    15    16   ar
    16    16    17   ar
    17    17    18   ar
    18    18    19   ar
    19    19    20   ar
    20    20    21   ar
    21    21    22   ar
    22    22    23    2
    23    17    24    1
    24    24    25   ar
    25    25    26   ar
    26    26    27   ar
    27    27    28   ar
    28    28    29   ar
    29    29    30   ar
    30    30    31   ar
    31    23     1    1
    32    31    24   ar
    33    22     3   ar
    34    31    27   ar
    35     8     4   ar
    36    21     9   ar
    37    14    10   ar
    38    20    15   ar
    39     1    32    1
    40     1    33    1
    41     2    34    1
    42     5    35    1
    43     6    36    1
    44    11    37    1
    45    13    38    1
    46    16    39    1
    47    19    40    1
    48    23    41    1
    49    26    42    1
    50    28    43    1
    51    29    44    1
    52    30    45    1
