@<TRIPOS>MOLECULE
*****
 45 51 0 0 0
SMALL
GASTEIGER

@<TRIPOS>ATOM
      1 C           4.5645    3.3025    0.8633 C.3     1  UNL1       -0.0148
      2 C           5.2840    2.0068    0.6329 C.2     1  UNL1       -0.0719
      3 C           4.3902    1.0392    0.3859 C.ar    1  UNL1       -0.0130
      4 C           4.5708   -0.3458    0.1088 C.ar    1  UNL1       -0.0028
      5 C           5.7837   -1.0806    0.0205 C.ar    1  UNL1       -0.0464
      6 C           5.5485   -2.4074   -0.2664 C.ar    1  UNL1       -0.0231
      7 S           3.8789   -2.7496   -0.4249 S.2     1  UNL1       -0.0960
      8 C           3.4425   -1.1263   -0.1120 C.ar    1  UNL1        0.0276
      9 C           2.0450   -0.6200   -0.0805 C.ar    1  UNL1       -0.0024
     10 C           0.9214   -1.4341   -0.3082 C.ar    1  UNL1       -0.0446
     11 C          -0.4178   -0.9468   -0.2777 C.ar    1  UNL1       -0.0095
     12 C          -0.5726    0.4240   -0.0016 C.ar    1  UNL1       -0.0160
     13 C          -1.8521    0.9796    0.0466 C.ar    1  UNL1       -0.0427
     14 C          -3.0290    0.2353   -0.1695 C.ar    1  UNL1        0.0255
     15 C          -4.2949    1.0056   -0.0758 C.ar    1  UNL1        0.1354
     16 C          -4.5853    2.3387    0.1858 C.ar    1  UNL1       -0.0159
     17 C          -5.9935    2.4857    0.1426 C.ar    1  UNL1       -0.0233
     18 C          -6.4892    1.2399   -0.1420 C.ar    1  UNL1        0.0926
     19 O          -5.4762    0.3505   -0.2736 O.2     1  UNL1       -0.4629
     20 C          -2.9025   -1.1647   -0.4534 C.ar    1  UNL1       -0.0066
     21 C          -4.0012   -2.0397   -0.6927 C.ar    1  UNL1       -0.0533
     22 C          -3.8599   -3.4006   -0.9678 C.ar    1  UNL1       -0.0611
     23 C          -2.6007   -3.9532   -1.0162 C.ar    1  UNL1       -0.0611
     24 C          -1.4939   -3.1392   -0.7891 C.ar    1  UNL1       -0.0534
     25 C          -1.5935   -1.7495   -0.5059 C.ar    1  UNL1       -0.0095
     26 C           0.5418    1.2528    0.2286 C.ar    1  UNL1       -0.0457
     27 C           1.8443    0.7514    0.1930 C.ar    1  UNL1       -0.0088
     28 C           3.0362    1.5951    0.4301 C.ar    1  UNL1       -0.0134
     29 C           3.1228    2.9082    0.7063 C.2     1  UNL1       -0.0719
     30 H           4.7593    3.6885    1.8682 H       1  UNL1        0.0350
     31 H           4.8509    4.0505    0.1183 H       1  UNL1        0.0350
     32 H           6.3561    1.8925    0.6654 H       1  UNL1        0.0581
     33 H           6.7762   -0.6706    0.1575 H       1  UNL1        0.0629
     34 H           6.2768   -3.1967   -0.3915 H       1  UNL1        0.0694
     35 H           1.0984   -2.4834   -0.5163 H       1  UNL1        0.0630
     36 H          -1.9281    2.0434    0.2633 H       1  UNL1        0.0631
     37 H          -3.8730    3.1256    0.3864 H       1  UNL1        0.0655
     38 H          -6.5708    3.3856    0.2992 H       1  UNL1        0.0649
     39 H          -7.4843    0.8399   -0.2771 H       1  UNL1        0.1029
     40 H          -5.0244   -1.6843   -0.6728 H       1  UNL1        0.0624
     41 H          -4.7393   -4.0145   -1.1414 H       1  UNL1        0.0618
     42 H          -2.4697   -5.0103   -1.2287 H       1  UNL1        0.0618
     43 H          -0.5292   -3.6354   -0.8414 H       1  UNL1        0.0624
     44 H           0.3843    2.3080    0.4391 H       1  UNL1        0.0630
     45 H           2.3042    3.6031    0.8072 H       1  UNL1        0.0581
@<TRIPOS>BOND
     1     1     2    1
     2     2     3    2
     3     3     4   ar
     4     4     5   ar
     5     5     6   ar
     6     6     7   ar
     7     7     8   ar
     8     8     9   ar
     9     9    10   ar
    10    10    11   ar
    11    11    12   ar
    12    12    13   ar
    13    13    14   ar
    14    14    15    1
    15    15    16   ar
    16    16    17   ar
    17    17    18   ar
    18    18    19   ar
    19    14    20   ar
    20    20    21   ar
    21    21    22   ar
    22    22    23   ar
    23    23    24   ar
    24    24    25   ar
    25    12    26   ar
    26    26    27   ar
    27    27    28   ar
    28    28    29    2
    29    29     1    1
    30    28     3   ar
    31     8     4   ar
    32    27     9   ar
    33    25    11   ar
    34    19    15   ar
    35    25    20   ar
    36     1    30    1
    37     1    31    1
    38     2    32    1
    39     5    33    1
    40     6    34    1
    41    10    35    1
    42    13    36    1
    43    16    37    1
    44    17    38    1
    45    18    39    1
    46    21    40    1
    47    22    41    1
    48    23    42    1
    49    24    43    1
    50    26    44    1
    51    29    45    1
