@<TRIPOS>MOLECULE
*****
 47 53 0 0 0
SMALL
GASTEIGER

@<TRIPOS>ATOM
      1 C           5.8219   -1.9988   -1.3987 C.3     1  UNL1       -0.0148
      2 C           6.2093   -0.5953   -1.0399 C.2     1  UNL1       -0.0719
      3 C           5.1273    0.0702   -0.6117 C.ar    1  UNL1       -0.0130
      4 C           4.9823    1.4136   -0.1632 C.ar    1  UNL1       -0.0028
      5 C           5.9790    2.4208   -0.0522 C.ar    1  UNL1       -0.0464
      6 C           5.4518    3.6014    0.4235 C.ar    1  UNL1       -0.0231
      7 S           3.7721    3.4833    0.7290 S.2     1  UNL1       -0.0960
      8 C           3.7226    1.8483    0.2292 C.ar    1  UNL1        0.0276
      9 C           2.4936    1.0123    0.2189 C.ar    1  UNL1       -0.0027
     10 C           1.2405    1.4986    0.6257 C.ar    1  UNL1       -0.0489
     11 C           0.1512    0.6429    0.5805 C.ar    1  UNL1       -0.0353
     12 C          -1.2756    0.9193    0.9565 C.3     1  UNL1       -0.0012
     13 C          -1.9023   -0.4246    0.6616 C.2     1  UNL1       -0.0348
     14 C          -1.0226   -1.3318    0.2031 C.2     1  UNL1       -0.0502
     15 C           0.2758   -0.6815    0.1426 C.ar    1  UNL1       -0.0206
     16 C           1.4947   -1.1916   -0.2648 C.ar    1  UNL1       -0.0460
     17 C           2.6166   -0.3485   -0.2305 C.ar    1  UNL1       -0.0088
     18 C           3.9595   -0.8120   -0.6488 C.ar    1  UNL1       -0.0134
     19 C           4.3489   -2.0161   -1.1038 C.2     1  UNL1       -0.0719
     20 C          -3.3300   -0.6631    0.8727 C.ar    1  UNL1       -0.0138
     21 C          -3.7042   -1.2948    2.0683 C.ar    1  UNL1       -0.0537
     22 C          -5.0439   -1.5444    2.3463 C.ar    1  UNL1       -0.0606
     23 C          -6.0231   -1.1677    1.4303 C.ar    1  UNL1       -0.0540
     24 C          -5.6791   -0.5429    0.2216 C.ar    1  UNL1       -0.0173
     25 C          -6.6794   -0.1755   -0.6942 C.ar    1  UNL1       -0.0540
     26 C          -6.3564    0.4384   -1.9036 C.ar    1  UNL1       -0.0612
     27 C          -5.0272    0.6910   -2.2156 C.ar    1  UNL1       -0.0611
     28 C          -4.0212    0.3332   -1.3155 C.ar    1  UNL1       -0.0535
     29 C          -4.3173   -0.2848   -0.0772 C.ar    1  UNL1       -0.0105
     30 H           6.0138   -2.2028   -2.4562 H       1  UNL1        0.0350
     31 H           6.3556   -2.7258   -0.7796 H       1  UNL1        0.0350
     32 H           7.2102   -0.2017   -1.1212 H       1  UNL1        0.0581
     33 H           7.0247    2.2976   -0.3038 H       1  UNL1        0.0629
     34 H           5.9713    4.5315    0.6077 H       1  UNL1        0.0694
     35 H           1.1046    2.5177    0.9711 H       1  UNL1        0.0627
     36 H          -1.3578    1.1745    2.0175 H       1  UNL1        0.0362
     37 H          -1.6972    1.7122    0.3317 H       1  UNL1        0.0362
     38 H          -1.2157   -2.3538   -0.0800 H       1  UNL1        0.0627
     39 H           1.5657   -2.2197   -0.6002 H       1  UNL1        0.0630
     40 H           3.7259   -2.8847   -1.2478 H       1  UNL1        0.0581
     41 H          -2.9478   -1.5909    2.7923 H       1  UNL1        0.0624
     42 H          -5.3257   -2.0309    3.2762 H       1  UNL1        0.0618
     43 H          -7.0656   -1.3707    1.6669 H       1  UNL1        0.0624
     44 H          -7.7266   -0.3688   -0.4708 H       1  UNL1        0.0624
     45 H          -7.1428    0.7146   -2.6009 H       1  UNL1        0.0618
     46 H          -4.7676    1.1640   -3.1589 H       1  UNL1        0.0618
     47 H          -2.9900    0.5374   -1.5961 H       1  UNL1        0.0624
@<TRIPOS>BOND
     1     1     2    1
     2     2     3    2
     3     3     4   ar
     4     4     5   ar
     5     5     6   ar
     6     6     7   ar
     7     7     8   ar
     8     8     9   ar
     9     9    10   ar
    10    10    11   ar
    11    11    12    1
    12    12    13    1
    13    13    14    2
    14    14    15    1
    15    15    16   ar
    16    16    17   ar
    17    17    18   ar
    18    18    19    2
    19    13    20    1
    20    20    21   ar
    21    21    22   ar
    22    22    23   ar
    23    23    24   ar
    24    24    25   ar
    25    25    26   ar
    26    26    27   ar
    27    27    28   ar
    28    28    29   ar
    29    19     1    1
    30    29    20   ar
    31    18     3   ar
    32    29    24   ar
    33     8     4   ar
    34    17     9   ar
    35    15    11   ar
    36     1    30    1
    37     1    31    1
    38     2    32    1
    39     5    33    1
    40     6    34    1
    41    10    35    1
    42    12    36    1
    43    12    37    1
    44    14    38    1
    45    16    39    1
    46    19    40    1
    47    21    41    1
    48    22    42    1
    49    23    43    1
    50    25    44    1
    51    26    45    1
    52    27    46    1
    53    28    47    1
