@<TRIPOS>MOLECULE
*****
 39 44 0 0 0
SMALL
GASTEIGER

@<TRIPOS>ATOM
      1 C          -3.9012   -2.9086   -1.5653 C.3     1  UNL1       -0.0148
      2 C          -4.7313   -1.8642   -0.8804 C.2     1  UNL1       -0.0719
      3 C          -3.9274   -0.9261   -0.3608 C.ar    1  UNL1       -0.0130
      4 C          -4.2306    0.2545    0.3752 C.ar    1  UNL1       -0.0028
      5 C          -5.5034    0.7569    0.7586 C.ar    1  UNL1       -0.0464
      6 C          -5.3877    1.9333    1.4664 C.ar    1  UNL1       -0.0231
      7 S          -3.7568    2.4155    1.6593 S.2     1  UNL1       -0.0960
      8 C          -3.1782    1.0568    0.7984 C.ar    1  UNL1        0.0277
      9 C          -1.7426    0.7756    0.5395 C.ar    1  UNL1       -0.0010
     10 C          -0.7042    1.6083    0.9840 C.ar    1  UNL1       -0.0269
     11 C           0.6298    1.3221    0.7275 C.ar    1  UNL1        0.0716
     12 N           1.5773    2.1565    1.1832 N.ar    1  UNL1       -0.2543
     13 C           2.8731    1.8535    0.9208 C.ar    1  UNL1        0.0374
     14 C           3.2964    0.7406    0.2049 C.ar    1  UNL1        0.0170
     15 C           2.2986   -0.1179   -0.2585 C.ar    1  UNL1       -0.0420
     16 C           0.9450    0.1591   -0.0043 C.ar    1  UNL1        0.0016
     17 C          -0.0768   -0.6925   -0.4580 C.ar    1  UNL1       -0.0442
     18 C          -1.4178   -0.3966   -0.1942 C.ar    1  UNL1       -0.0087
     19 C          -2.5306   -1.2587   -0.6492 C.ar    1  UNL1       -0.0134
     20 C          -2.5009   -2.4073   -1.3478 C.2     1  UNL1       -0.0719
     21 C           4.7151    0.4851   -0.0392 C.ar    1  UNL1        0.0479
     22 C           5.8257    0.7513    0.7466 C.ar    1  UNL1       -0.0364
     23 C           6.9787    0.3207    0.0474 C.ar    1  UNL1       -0.0438
     24 C           6.5557   -0.1899   -1.1563 C.ar    1  UNL1        0.0022
     25 N           5.1908   -0.0835   -1.2027 N.ar    1  UNL1       -0.3606
     26 H          -4.1378   -2.9636   -2.6318 H       1  UNL1        0.0350
     27 H          -4.0433   -3.8903   -1.1041 H       1  UNL1        0.0350
     28 H          -5.8084   -1.8836   -0.8251 H       1  UNL1        0.0581
     29 H          -6.4546    0.2915    0.5342 H       1  UNL1        0.0629
     30 H          -6.1827    2.5369    1.8821 H       1  UNL1        0.0694
     31 H          -0.9188    2.5113    1.5498 H       1  UNL1        0.0645
     32 H           3.5858    2.5741    1.3138 H       1  UNL1        0.0836
     33 H           2.5665   -1.0204   -0.8015 H       1  UNL1        0.0631
     34 H           0.1832   -1.5871   -1.0172 H       1  UNL1        0.0630
     35 H          -1.6254   -2.9209   -1.7125 H       1  UNL1        0.0581
     36 H           5.8101    1.2004    1.7319 H       1  UNL1        0.0639
     37 H           8.0050    0.3809    0.3862 H       1  UNL1        0.0633
     38 H           7.1068   -0.6146   -1.9846 H       1  UNL1        0.0807
     39 H           4.6172   -0.3592   -1.9883 H       1  UNL1        0.1653
@<TRIPOS>BOND
     1     1     2    1
     2     2     3    2
     3     3     4   ar
     4     4     5   ar
     5     5     6   ar
     6     6     7   ar
     7     7     8   ar
     8     8     9   ar
     9     9    10   ar
    10    10    11   ar
    11    11    12   ar
    12    12    13   ar
    13    13    14   ar
    14    14    15   ar
    15    15    16   ar
    16    16    17   ar
    17    17    18   ar
    18    18    19   ar
    19    19    20    2
    20    14    21    1
    21    21    22   ar
    22    22    23   ar
    23    23    24   ar
    24    24    25   ar
    25    20     1    1
    26    25    21   ar
    27    19     3   ar
    28     8     4   ar
    29    18     9   ar
    30    16    11   ar
    31     1    26    1
    32     1    27    1
    33     2    28    1
    34     5    29    1
    35     6    30    1
    36    10    31    1
    37    13    32    1
    38    15    33    1
    39    17    34    1
    40    20    35    1
    41    22    36    1
    42    23    37    1
    43    24    38    1
    44    25    39    1
