@<TRIPOS>MOLECULE
*****
 43 49 0 0 0
SMALL
GASTEIGER

@<TRIPOS>ATOM
      1 C          -3.1155    0.9326    2.5594 C.3     1  UNL1       -0.0148
      2 C          -4.1767    0.4736    1.6086 C.2     1  UNL1       -0.0719
      3 C          -3.5976   -0.0751    0.5315 C.ar    1  UNL1       -0.0130
      4 C          -4.1752   -0.8210   -0.5314 C.ar    1  UNL1       -0.0028
      5 C          -5.5450   -1.0032   -0.8579 C.ar    1  UNL1       -0.0464
      6 C          -5.6947   -1.8386   -1.9440 C.ar    1  UNL1       -0.0231
      7 S          -4.1905   -2.3934   -2.5466 S.2     1  UNL1       -0.0960
      8 C          -3.3180   -1.5223   -1.3638 C.ar    1  UNL1        0.0291
      9 C          -1.8420   -1.4844   -1.2710 C.ar    1  UNL1        0.0157
     10 C          -1.0112   -2.3175   -1.9897 C.ar    1  UNL1        0.0371
     11 N           0.3330   -2.2811   -1.9076 N.ar    1  UNL1       -0.2543
     12 C           0.9060   -1.3017   -1.1961 C.ar    1  UNL1        0.0728
     13 C           2.2839   -1.3172   -1.1729 C.ar    1  UNL1       -0.0269
     14 C           3.0354   -0.3295   -0.5313 C.ar    1  UNL1       -0.0001
     15 C           4.4912   -0.4675   -0.5529 C.ar    1  UNL1        0.0394
     16 C           5.4208    0.0635   -1.4265 C.ar    1  UNL1        0.0425
     17 N           6.7406   -0.2556   -1.1665 N.ar    1  UNL1       -0.2551
     18 C           6.7936   -1.0351   -0.1088 C.ar    1  UNL1        0.0652
     19 S           5.2935   -1.4171    0.6305 S.2     1  UNL1       -0.0754
     20 C           2.3838    0.7899    0.0258 C.ar    1  UNL1       -0.0089
     21 C           3.1039    1.8772    0.5844 C.ar    1  UNL1       -0.0534
     22 C           2.4693    3.0353    1.0228 C.ar    1  UNL1       -0.0611
     23 C           1.0997    3.1443    0.8872 C.ar    1  UNL1       -0.0611
     24 C           0.3715    2.0720    0.3671 C.ar    1  UNL1       -0.0534
     25 C           0.9631    0.8398   -0.0103 C.ar    1  UNL1       -0.0075
     26 C           0.1975   -0.2991   -0.5010 C.ar    1  UNL1        0.0164
     27 C          -1.2189   -0.5427   -0.4041 C.ar    1  UNL1        0.0018
     28 C          -2.1359    0.0313    0.6316 C.ar    1  UNL1       -0.0128
     29 C          -1.8543    0.5368    1.8475 C.2     1  UNL1       -0.0719
     30 H          -3.2003    0.4143    3.5191 H       1  UNL1        0.0350
     31 H          -3.1599    2.0138    2.7180 H       1  UNL1        0.0350
     32 H          -5.2336    0.4944    1.8245 H       1  UNL1        0.0581
     33 H          -6.3801   -0.5562   -0.3335 H       1  UNL1        0.0629
     34 H          -6.6158   -2.1546   -2.4141 H       1  UNL1        0.0694
     35 H          -1.3926   -3.0888   -2.6518 H       1  UNL1        0.0836
     36 H           2.7952   -2.1373   -1.6770 H       1  UNL1        0.0645
     37 H           5.1883    0.6983   -2.2735 H       1  UNL1        0.0841
     38 H           7.7282   -1.4179    0.2801 H       1  UNL1        0.0907
     39 H           4.1895    1.8454    0.6622 H       1  UNL1        0.0624
     40 H           3.0507    3.8573    1.4311 H       1  UNL1        0.0618
     41 H           0.5900    4.0602    1.1742 H       1  UNL1        0.0618
     42 H          -0.6949    2.2338    0.2243 H       1  UNL1        0.0624
     43 H          -0.8760    0.6431    2.2918 H       1  UNL1        0.0581
@<TRIPOS>BOND
     1     1     2    1
     2     2     3    2
     3     3     4   ar
     4     4     5   ar
     5     5     6   ar
     6     6     7   ar
     7     7     8   ar
     8     8     9   ar
     9     9    10   ar
    10    10    11   ar
    11    11    12   ar
    12    12    13   ar
    13    13    14   ar
    14    14    15    1
    15    15    16   ar
    16    16    17   ar
    17    17    18   ar
    18    18    19   ar
    19    14    20   ar
    20    20    21   ar
    21    21    22   ar
    22    22    23   ar
    23    23    24   ar
    24    24    25   ar
    25    25    26   ar
    26    26    27   ar
    27    27    28   ar
    28    28    29    2
    29    29     1    1
    30    28     3   ar
    31     8     4   ar
    32    27     9   ar
    33    26    12   ar
    34    19    15   ar
    35    25    20   ar
    36     1    30    1
    37     1    31    1
    38     2    32    1
    39     5    33    1
    40     6    34    1
    41    10    35    1
    42    13    36    1
    43    16    37    1
    44    18    38    1
    45    21    39    1
    46    22    40    1
    47    23    41    1
    48    24    42    1
    49    29    43    1
