@<TRIPOS>MOLECULE
*****
 46 53 0 0 0
SMALL
GASTEIGER

@<TRIPOS>ATOM
      1 C          -3.8982    2.0584    1.9125 C.3     1  UNL1       -0.0148
      2 C          -4.9569    1.3344    1.1416 C.2     1  UNL1       -0.0719
      3 C          -4.3754    0.5260    0.2445 C.ar    1  UNL1       -0.0129
      4 C          -4.9531   -0.2058   -0.8302 C.ar    1  UNL1       -0.0013
      5 C          -6.3232   -0.4276   -1.1326 C.ar    1  UNL1       -0.0463
      6 C          -6.4691   -1.1542   -2.2954 C.ar    1  UNL1       -0.0231
      7 S          -4.9612   -1.5512   -3.0075 S.2     1  UNL1       -0.0945
      8 C          -4.0950   -0.7623   -1.7651 C.ar    1  UNL1        0.0458
      9 C          -2.6200   -0.7144   -1.6817 C.ar    1  UNL1        0.0864
     10 N          -1.9446   -1.2436   -2.7266 N.ar    1  UNL1       -0.2532
     11 C          -0.5983   -1.2648   -2.6352 C.ar    1  UNL1        0.0361
     12 C           0.1445   -0.8755   -1.5249 C.ar    1  UNL1        0.0021
     13 C           1.5808   -1.0168   -1.5707 C.ar    1  UNL1       -0.0436
     14 C           2.4525   -0.7498   -0.4950 C.ar    1  UNL1        0.0005
     15 C           3.8864   -0.8910   -0.5452 C.ar    1  UNL1        0.0438
     16 S           4.6758   -2.3810   -0.9440 S.2     1  UNL1       -0.0939
     17 C           6.2719   -1.7053   -0.7800 C.ar    1  UNL1       -0.0145
     18 C           6.1310   -0.4052   -0.4511 C.ar    1  UNL1        0.0073
     19 C           6.8940    0.7549   -0.1716 C.ar    1  UNL1       -0.0361
     20 C           5.9794    1.7978    0.0928 C.ar    1  UNL1        0.0028
     21 N           4.6594    1.3614   -0.0050 N.ar    1  UNL1       -0.3598
     22 C           4.8358    0.0450   -0.3250 C.ar    1  UNL1        0.0614
     23 C           1.7332   -0.3949    0.6448 C.ar    1  UNL1        0.0083
     24 C           2.2397   -0.2234    1.9118 C.ar    1  UNL1        0.0100
     25 N           1.1724   -0.0201    2.7519 N.ar    1  UNL1       -0.3659
     26 C          -0.0039   -0.0722    2.0371 C.ar    1  UNL1        0.0100
     27 C           0.3070   -0.2259    0.7057 C.ar    1  UNL1        0.0084
     28 C          -0.5991   -0.3777   -0.3953 C.ar    1  UNL1        0.0025
     29 C          -2.0089   -0.1731   -0.5258 C.ar    1  UNL1        0.0172
     30 C          -2.9115    0.5864    0.3809 C.ar    1  UNL1       -0.0114
     31 C          -2.6344    1.5380    1.2906 C.2     1  UNL1       -0.0719
     32 H          -3.9844    3.1400    1.7725 H       1  UNL1        0.0350
     33 H          -3.9442    1.8192    2.9788 H       1  UNL1        0.0350
     34 H          -6.0147    1.5237    1.2386 H       1  UNL1        0.0581
     35 H          -7.1612   -0.0769   -0.5439 H       1  UNL1        0.0629
     36 H          -7.3880   -1.4709   -2.7689 H       1  UNL1        0.0694
     37 H          -0.1117   -1.6622   -3.5243 H       1  UNL1        0.0836
     38 H           2.0325   -1.3675   -2.5020 H       1  UNL1        0.0630
     39 H           7.1583   -2.3011   -0.9409 H       1  UNL1        0.0700
     40 H           7.9716    0.8510   -0.1605 H       1  UNL1        0.0639
     41 H           6.1700    2.8334    0.3438 H       1  UNL1        0.0807
     42 H           3.7827    1.8534    0.1236 H       1  UNL1        0.1654
     43 H           3.2452   -0.2826    2.3084 H       1  UNL1        0.0813
     44 H           1.2361    0.0791    3.7573 H       1  UNL1        0.1648
     45 H          -0.9432   -0.0326    2.5689 H       1  UNL1        0.0813
     46 H          -1.6603    1.9273    1.5400 H       1  UNL1        0.0581
@<TRIPOS>BOND
     1     1     2    1
     2     2     3    2
     3     3     4   ar
     4     4     5   ar
     5     5     6   ar
     6     6     7   ar
     7     7     8   ar
     8     8     9   ar
     9     9    10   ar
    10    10    11   ar
    11    11    12   ar
    12    12    13   ar
    13    13    14   ar
    14    14    15    1
    15    15    16   ar
    16    16    17   ar
    17    17    18   ar
    18    18    19   ar
    19    19    20   ar
    20    20    21   ar
    21    21    22   ar
    22    14    23   ar
    23    23    24   ar
    24    24    25   ar
    25    25    26   ar
    26    26    27   ar
    27    27    28   ar
    28    28    29   ar
    29    29    30   ar
    30    30    31    2
    31    31     1    1
    32    30     3   ar
    33     8     4   ar
    34    29     9   ar
    35    28    12   ar
    36    22    15   ar
    37    27    23   ar
    38    22    18   ar
    39     1    32    1
    40     1    33    1
    41     2    34    1
    42     5    35    1
    43     6    36    1
    44    11    37    1
    45    13    38    1
    46    17    39    1
    47    19    40    1
    48    20    41    1
    49    21    42    1
    50    24    43    1
    51    25    44    1
    52    26    45    1
    53    31    46    1
