@<TRIPOS>MOLECULE
*****
 44 50 0 0 0
SMALL
GASTEIGER

@<TRIPOS>ATOM
      1 C          -6.3163   -1.1760    0.5163 C.3     1  UNL1       -0.0148
      2 C          -6.5329    0.1367   -0.1759 C.2     1  UNL1       -0.0725
      3 C          -5.3445    0.6868   -0.4607 C.ar    1  UNL1       -0.0211
      4 C          -5.0832    1.9829   -1.0640 C.ar    1  UNL1       -0.0524
      5 C          -3.8084    2.4026   -1.2061 C.ar    1  UNL1       -0.0372
      6 C          -2.7889    1.5062   -0.7741 C.ar    1  UNL1        0.0481
      7 N          -1.4626    1.8293   -0.8530 N.ar    1  UNL1       -0.3536
      8 C          -0.6890    0.7675   -0.4117 C.ar    1  UNL1        0.0575
      9 C          -1.6119   -0.2279   -0.0696 C.ar    1  UNL1        0.0193
     10 C          -1.0489   -1.4719    0.3479 C.ar    1  UNL1        0.0302
     11 C          -1.5976   -2.6763    0.6590 C.ar    1  UNL1        0.1001
     12 O          -0.5815   -3.5401    0.9828 O.2     1  UNL1       -0.4698
     13 C           0.5970   -2.8571    0.8431 C.ar    1  UNL1        0.1000
     14 C           0.3551   -1.5670    0.4301 C.ar    1  UNL1        0.0284
     15 C           1.3258   -0.5868    0.1398 C.ar    1  UNL1       -0.0016
     16 C           2.7286   -0.7017    0.2319 C.ar    1  UNL1       -0.0257
     17 C           3.5243    0.3879   -0.1222 C.ar    1  UNL1        0.0897
     18 N           2.9745    1.5595   -0.5573 N.ar    1  UNL1       -0.2528
     19 C           1.6227    1.6481   -0.6392 C.ar    1  UNL1        0.0380
     20 C           0.7390    0.6200   -0.3074 C.ar    1  UNL1        0.0249
     21 C           5.0060    0.3344   -0.0483 C.ar    1  UNL1        0.0891
     22 C           5.8085    1.4226   -0.4000 C.ar    1  UNL1       -0.0342
     23 C           7.1952    1.3147   -0.3105 C.ar    1  UNL1       -0.0583
     24 C           7.7568    0.1243    0.1279 C.ar    1  UNL1       -0.0436
     25 C           6.9043   -0.9126    0.4598 C.ar    1  UNL1        0.0283
     26 N           5.5568   -0.8360    0.3827 N.ar    1  UNL1       -0.2534
     27 C          -2.9230    0.2308   -0.2282 C.ar    1  UNL1        0.0155
     28 C          -4.2620   -0.2130   -0.0154 C.ar    1  UNL1       -0.0120
     29 C          -4.8168   -1.2753    0.5808 C.2     1  UNL1       -0.0719
     30 H          -6.7413   -2.0029   -0.0601 H       1  UNL1        0.0350
     31 H          -6.7507   -1.1652    1.5205 H       1  UNL1        0.0350
     32 H          -7.5008    0.5708   -0.3727 H       1  UNL1        0.0581
     33 H          -5.9188    2.6013   -1.3704 H       1  UNL1        0.0624
     34 H          -3.5767    3.3693   -1.6390 H       1  UNL1        0.0638
     35 H          -1.0980    2.7051   -1.1983 H       1  UNL1        0.1659
     36 H          -2.5805   -3.1117    0.6907 H       1  UNL1        0.1036
     37 H           1.4864   -3.4324    1.0582 H       1  UNL1        0.1036
     38 H           3.1880   -1.6242    0.5716 H       1  UNL1        0.0646
     39 H           1.2702    2.6124   -0.9915 H       1  UNL1        0.0836
     40 H           5.3596    2.3506   -0.7421 H       1  UNL1        0.0639
     41 H           7.8266    2.1558   -0.5819 H       1  UNL1        0.0619
     42 H           8.8314    0.0071    0.2090 H       1  UNL1        0.0633
     43 H           7.2933   -1.8652    0.8083 H       1  UNL1        0.0830
     44 H          -4.3157   -2.0834    1.0774 H       1  UNL1        0.0581
@<TRIPOS>BOND
     1     1     2    1
     2     2     3    2
     3     3     4   ar
     4     4     5   ar
     5     5     6   ar
     6     6     7   ar
     7     7     8   ar
     8     8     9   ar
     9     9    10   ar
    10    10    11   ar
    11    11    12   ar
    12    12    13   ar
    13    13    14   ar
    14    14    15   ar
    15    15    16   ar
    16    16    17   ar
    17    17    18   ar
    18    18    19   ar
    19    19    20   ar
    20    17    21    1
    21    21    22   ar
    22    22    23   ar
    23    23    24   ar
    24    24    25   ar
    25    25    26   ar
    26     9    27   ar
    27    27    28   ar
    28    28    29    2
    29    29     1    1
    30    28     3   ar
    31    27     6   ar
    32    20     8   ar
    33    26    21   ar
    34    14    10   ar
    35    20    15   ar
    36     1    30    1
    37     1    31    1
    38     2    32    1
    39     4    33    1
    40     5    34    1
    41     7    35    1
    42    11    36    1
    43    13    37    1
    44    16    38    1
    45    19    39    1
    46    22    40    1
    47    23    41    1
    48    24    42    1
    49    25    43    1
    50    29    44    1
