@<TRIPOS>MOLECULE
*****
 44 50 0 0 0
SMALL
GASTEIGER

@<TRIPOS>ATOM
      1 C          -6.7496   -0.0203   -1.1083 C.3     1  UNL1       -0.0148
      2 C          -6.7261    0.1989    0.3809 C.2     1  UNL1       -0.0725
      3 C          -5.4547    0.2329    0.8045 C.ar    1  UNL1       -0.0211
      4 C          -4.9443    0.4208    2.1560 C.ar    1  UNL1       -0.0524
      5 C          -3.6091    0.4226    2.3724 C.ar    1  UNL1       -0.0372
      6 C          -2.7792    0.2353    1.2301 C.ar    1  UNL1        0.0481
      7 N          -1.4169    0.2121    1.2829 N.ar    1  UNL1       -0.3539
      8 C          -0.9123    0.0133    0.0134 C.ar    1  UNL1        0.0516
      9 C           0.4004   -0.0839   -0.4414 C.ar    1  UNL1       -0.0120
     10 C           1.7176   -0.0084    0.2755 C.3     1  UNL1        0.0012
     11 C           2.7142   -0.1999   -0.8651 C.2     1  UNL1       -0.0284
     12 C           2.0637   -0.3579   -2.0382 C.2     1  UNL1       -0.0497
     13 C           0.6286   -0.2905   -1.8056 C.ar    1  UNL1       -0.0193
     14 C          -0.4060   -0.4008   -2.7145 C.ar    1  UNL1       -0.0536
     15 C          -1.7277   -0.3026   -2.2537 C.ar    1  UNL1       -0.0514
     16 C          -1.9963   -0.0935   -0.8775 C.ar    1  UNL1        0.0083
     17 C          -3.1632    0.0494   -0.0887 C.ar    1  UNL1        0.0148
     18 C          -4.5608    0.0427   -0.3475 C.ar    1  UNL1       -0.0121
     19 C          -5.2895   -0.1050   -1.4599 C.2     1  UNL1       -0.0719
     20 C           4.1425   -0.2167   -0.7531 C.ar    1  UNL1        0.0197
     21 S           5.2092   -0.4503   -2.1204 S.2     1  UNL1       -0.0961
     22 C           6.6451   -0.3411   -1.1772 C.ar    1  UNL1       -0.0163
     23 C           6.3110   -0.1354    0.1227 C.ar    1  UNL1       -0.0142
     24 C           7.0224    0.0321    1.3355 C.2     1  UNL1       -0.0574
     25 C           6.1410    0.2069    2.3456 C.2     1  UNL1       -0.0791
     26 C           4.6978    0.1639    1.8357 C.3     1  UNL1       -0.0075
     27 C           4.9208   -0.0637    0.3751 C.ar    1  UNL1       -0.0220
     28 H          -7.2286    0.8193   -1.6206 H       1  UNL1        0.0350
     29 H          -7.2683   -0.9502   -1.3595 H       1  UNL1        0.0350
     30 H          -7.6059    0.3094    0.9952 H       1  UNL1        0.0581
     31 H          -5.6479    0.5566    2.9690 H       1  UNL1        0.0624
     32 H          -3.1947    0.5596    3.3645 H       1  UNL1        0.0638
     33 H          -0.8556    0.3220    2.1147 H       1  UNL1        0.1659
     34 H           1.8422    0.9695    0.7507 H       1  UNL1        0.0363
     35 H           1.8012   -0.8116    1.0140 H       1  UNL1        0.0363
     36 H           2.4797   -0.5125   -3.0212 H       1  UNL1        0.0627
     37 H          -0.2081   -0.5611   -3.7694 H       1  UNL1        0.0624
     38 H          -2.5471   -0.3882   -2.9604 H       1  UNL1        0.0624
     39 H          -4.9116   -0.2607   -2.4567 H       1  UNL1        0.0581
     40 H           7.6205   -0.4338   -1.6328 H       1  UNL1        0.0699
     41 H           8.0992    0.0204    1.4277 H       1  UNL1        0.0621
     42 H           6.4035    0.3583    3.3819 H       1  UNL1        0.0575
     43 H           4.1925    1.1147    2.0267 H       1  UNL1        0.0356
     44 H           4.1500   -0.6624    2.2971 H       1  UNL1        0.0356
@<TRIPOS>BOND
     1     1     2    1
     2     2     3    2
     3     3     4   ar
     4     4     5   ar
     5     5     6   ar
     6     6     7   ar
     7     7     8   ar
     8     8     9   ar
     9     9    10    1
    10    10    11    1
    11    11    12    2
    12    12    13    1
    13    13    14   ar
    14    14    15   ar
    15    15    16   ar
    16    16    17   ar
    17    17    18   ar
    18    18    19    2
    19    11    20    1
    20    20    21   ar
    21    21    22   ar
    22    22    23   ar
    23    23    24    1
    24    24    25    2
    25    25    26    1
    26    26    27    1
    27    19     1    1
    28    27    20   ar
    29    18     3   ar
    30    27    23   ar
    31    17     6   ar
    32    16     8   ar
    33    13     9   ar
    34     1    28    1
    35     1    29    1
    36     2    30    1
    37     4    31    1
    38     5    32    1
    39     7    33    1
    40    10    34    1
    41    10    35    1
    42    12    36    1
    43    14    37    1
    44    15    38    1
    45    19    39    1
    46    22    40    1
    47    24    41    1
    48    25    42    1
    49    26    43    1
    50    26    44    1
