@<TRIPOS>MOLECULE
*****
 43 49 0 0 0
SMALL
GASTEIGER

@<TRIPOS>ATOM
      1 C          -6.2262    0.3874    1.9200 C.3     1  UNL1       -0.0148
      2 C          -6.7931   -0.1985    0.6529 C.2     1  UNL1       -0.0725
      3 C          -5.7946   -0.4537   -0.2043 C.ar    1  UNL1       -0.0210
      4 C          -5.8527   -1.0201   -1.5486 C.ar    1  UNL1       -0.0524
      5 C          -4.7121   -1.1992   -2.2570 C.ar    1  UNL1       -0.0371
      6 C          -3.4971   -0.8099   -1.6205 C.ar    1  UNL1        0.0496
      7 N          -2.2668   -0.9291   -2.2063 N.ar    1  UNL1       -0.3512
      8 C          -1.3447   -0.4577   -1.3017 C.ar    1  UNL1        0.0916
      9 C           0.0337   -0.2436   -1.1244 C.ar    1  UNL1        0.1123
     10 N           1.0251   -0.5067   -1.9966 N.ar    1  UNL1       -0.2508
     11 C           2.2519   -0.1812   -1.5149 C.ar    1  UNL1        0.0362
     12 C           2.5422    0.3659   -0.2557 C.ar    1  UNL1        0.0029
     13 C           1.4668    0.6268    0.6101 C.ar    1  UNL1       -0.0270
     14 C           0.1905    0.3034    0.1449 C.ar    1  UNL1        0.0681
     15 N          -1.0545    0.4176    0.7258 N.ar    1  UNL1       -0.3512
     16 C          -1.9866   -0.0490   -0.1655 C.ar    1  UNL1        0.0753
     17 C          -3.3606   -0.2665   -0.3510 C.ar    1  UNL1        0.0311
     18 C          -4.5231   -0.0634    0.4206 C.ar    1  UNL1       -0.0107
     19 C          -4.7465    0.4240    1.6452 C.2     1  UNL1       -0.0718
     20 C           3.9077    0.6720    0.1421 C.ar    1  UNL1       -0.0057
     21 C           4.3786    1.9649    0.5042 C.ar    1  UNL1       -0.0533
     22 C           5.7351    2.2643    0.8932 C.ar    1  UNL1       -0.0605
     23 C           6.7713    1.3061    0.9701 C.ar    1  UNL1       -0.0510
     24 C           6.2894    0.0523    0.6228 C.ar    1  UNL1        0.0204
     25 C           6.9953   -1.1200    0.5951 C.ar    1  UNL1        0.0994
     26 O           6.1655   -2.1416    0.2208 O.2     1  UNL1       -0.4698
     27 C           4.9219   -1.6090    0.0101 C.ar    1  UNL1        0.1000
     28 C           4.9515   -0.2553    0.2333 C.ar    1  UNL1        0.0276
     29 H          -6.4495   -0.2504    2.7804 H       1  UNL1        0.0350
     30 H          -6.6175    1.3939    2.0954 H       1  UNL1        0.0350
     31 H          -7.8426   -0.3781    0.4794 H       1  UNL1        0.0581
     32 H          -6.8178   -1.2907   -1.9609 H       1  UNL1        0.0624
     33 H          -4.7215   -1.6174   -3.2570 H       1  UNL1        0.0638
     34 H          -2.0175   -1.2854   -3.1207 H       1  UNL1        0.1660
     35 H           3.0577   -0.3782   -2.2209 H       1  UNL1        0.0836
     36 H           1.6189    1.0472    1.5986 H       1  UNL1        0.0645
     37 H          -1.2843    0.7749    1.6433 H       1  UNL1        0.1660
     38 H          -4.0027    0.7870    2.3349 H       1  UNL1        0.0581
     39 H           3.6742    2.7989    0.4778 H       1  UNL1        0.0624
     40 H           5.9726    3.2998    1.1424 H       1  UNL1        0.0618
     41 H           7.7840    1.5402    1.2650 H       1  UNL1        0.0625
     42 H           8.0178   -1.4026    0.8012 H       1  UNL1        0.1035
     43 H           4.1602   -2.3191   -0.2811 H       1  UNL1        0.1036
@<TRIPOS>BOND
     1     1     2    1
     2     2     3    2
     3     3     4   ar
     4     4     5   ar
     5     5     6   ar
     6     6     7   ar
     7     7     8   ar
     8     8     9   ar
     9     9    10   ar
    10    10    11   ar
    11    11    12   ar
    12    12    13   ar
    13    13    14   ar
    14    14    15   ar
    15    15    16   ar
    16    16    17   ar
    17    17    18   ar
    18    18    19    2
    19    12    20    1
    20    20    21   ar
    21    21    22   ar
    22    22    23   ar
    23    23    24   ar
    24    24    25   ar
    25    25    26   ar
    26    26    27   ar
    27    27    28   ar
    28    19     1    1
    29    28    20   ar
    30    18     3   ar
    31    28    24   ar
    32    17     6   ar
    33    16     8   ar
    34    14     9   ar
    35     1    29    1
    36     1    30    1
    37     2    31    1
    38     4    32    1
    39     5    33    1
    40     7    34    1
    41    11    35    1
    42    13    36    1
    43    15    37    1
    44    19    38    1
    45    21    39    1
    46    22    40    1
    47    23    41    1
    48    25    42    1
    49    27    43    1
