@<TRIPOS>MOLECULE
*****
 43 49 0 0 0
SMALL
GASTEIGER

@<TRIPOS>ATOM
      1 SI          0.7254    1.2601   -3.4069 Si      1  UNL1        0.0000
      2 C           1.8072    0.4598   -2.1230 C.2     1  UNL1        0.0000
      3 C           1.0975    0.0825   -1.0376 C.ar    1  UNL1        0.0000
      4 C           1.6895   -0.3941    0.2139 C.ar    1  UNL1        0.0000
      5 C           0.8847   -0.4568    1.2972 C.ar    1  UNL1        0.0000
      6 C          -0.5721   -0.1876    1.2421 C.ar    1  UNL1        0.0000
      7 C          -1.2883   -0.1896    2.4409 C.ar    1  UNL1        0.0000
      8 C          -2.6738   -0.0302    2.4421 C.ar    1  UNL1        0.0000
      9 C          -3.4073    0.0174    1.2537 C.ar    1  UNL1        0.0000
     10 C          -4.8387    0.1125    1.3611 C.ar    1  UNL1        0.0000
     11 C          -5.7396    0.0758    0.2814 C.ar    1  UNL1        0.0000
     12 C          -5.0732   -0.1432   -0.9145 C.ar    1  UNL1        0.0000
     13 C          -5.7628   -0.3390   -2.0863 C.ar    1  UNL1        0.0000
     14 S          -4.6988   -0.7393   -3.3683 S.2     1  UNL1        0.0000
     15 C          -3.3259   -0.6575   -2.3380 C.ar    1  UNL1        0.0000
     16 C          -3.6383   -0.2230   -1.0686 C.ar    1  UNL1        0.0000
     17 C          -2.6907   -0.0564    0.0031 C.ar    1  UNL1        0.0000
     18 C          -1.2519   -0.0001    0.0128 C.ar    1  UNL1        0.0000
     19 C          -0.3660    0.3256   -1.1403 C.ar    1  UNL1        0.0000
     20 C          -0.7137    1.0224   -2.2438 C.2     1  UNL1        0.0000
     21 C           3.0650   -0.7553    0.4026 C.ar    1  UNL1        0.0000
     22 S           3.7043   -2.1486   -0.4134 S.2     1  UNL1        0.0000
     23 C           5.2676   -1.9446    0.2571 C.ar    1  UNL1        0.0000
     24 C           5.3159   -0.8573    1.0880 C.ar    1  UNL1        0.0000
     25 N           6.4469   -0.4824    1.7483 N.ar    1  UNL1        0.0000
     26 C           6.2159    0.6269    2.5030 C.ar    1  UNL1        0.0000
     27 C           4.9902    1.2968    2.5985 C.ar    1  UNL1        0.0000
     28 N           3.8479    0.9391    1.9514 N.ar    1  UNL1        0.0000
     29 C           4.0487   -0.1711    1.1799 C.ar    1  UNL1        0.0000
     30 H           0.5969    0.4394   -4.6352 H       1  UNL1        0.0000
     31 H           1.0543    2.6898   -3.6220 H       1  UNL1        0.0000
     32 H           2.8777    0.4277   -2.2494 H       1  UNL1        0.0000
     33 H           1.2805   -0.7645    2.2619 H       1  UNL1        0.0000
     34 H          -0.7732   -0.2992    3.3928 H       1  UNL1        0.0000
     35 H          -3.1816    0.0003    3.4051 H       1  UNL1        0.0000
     36 H          -5.2794    0.2047    2.3565 H       1  UNL1        0.0000
     37 H          -6.8121    0.1355    0.4080 H       1  UNL1        0.0000
     38 H          -6.8298   -0.3098   -2.2597 H       1  UNL1        0.0000
     39 H          -2.3687   -0.9470   -2.7444 H       1  UNL1        0.0000
     40 H          -1.6752    1.4432   -2.4877 H       1  UNL1        0.0000
     41 H           6.0683   -2.6277    0.0142 H       1  UNL1        0.0000
     42 H           7.0775    0.9869    3.0586 H       1  UNL1        0.0000
     43 H           4.8989    2.1778    3.2278 H       1  UNL1        0.0000
@<TRIPOS>BOND
     1     1     2    1
     2     2     3    2
     3     3     4   ar
     4     4     5   ar
     5     5     6   ar
     6     6     7   ar
     7     7     8   ar
     8     8     9   ar
     9     9    10   ar
    10    10    11   ar
    11    11    12   ar
    12    12    13   ar
    13    13    14   ar
    14    14    15   ar
    15    15    16   ar
    16    16    17   ar
    17    17    18   ar
    18    18    19   ar
    19    19    20    2
    20     4    21    1
    21    21    22   ar
    22    22    23   ar
    23    23    24   ar
    24    24    25   ar
    25    25    26   ar
    26    26    27   ar
    27    27    28   ar
    28    28    29   ar
    29    20     1    1
    30    29    21   ar
    31    19     3   ar
    32    29    24   ar
    33    18     6   ar
    34    17     9   ar
    35    16    12   ar
    36     1    30    1
    37     1    31    1
    38     2    32    1
    39     5    33    1
    40     7    34    1
    41     8    35    1
    42    10    36    1
    43    11    37    1
    44    13    38    1
    45    15    39    1
    46    20    40    1
    47    23    41    1
    48    26    42    1
    49    27    43    1
