@<TRIPOS>MOLECULE
*****
 38 43 0 0 0
SMALL
GASTEIGER

@<TRIPOS>ATOM
      1 C           5.1859   -2.3140   -1.5237 C.3     1  UNL1       -0.0148
      2 C           5.9708   -1.2580   -0.7866 C.2     1  UNL1       -0.0725
      3 C           5.1230   -0.3853   -0.2236 C.ar    1  UNL1       -0.0210
      4 C           5.4102    0.7976    0.5835 C.ar    1  UNL1       -0.0524
      5 C           4.3940    1.5549    1.0632 C.ar    1  UNL1       -0.0371
      6 C           3.0721    1.1308    0.7362 C.ar    1  UNL1        0.0512
      7 N           1.9399    1.7905    1.1462 N.ar    1  UNL1       -0.3499
      8 C           0.8639    1.0942    0.6430 C.ar    1  UNL1        0.1125
      9 C          -0.5327    1.0635    0.5792 C.ar    1  UNL1        0.1328
     10 N          -1.4351    1.9044    1.1204 N.ar    1  UNL1       -0.2491
     11 C          -2.7153    1.5393    0.8332 C.ar    1  UNL1        0.0363
     12 C          -3.1296    0.4278    0.0721 C.ar    1  UNL1        0.0052
     13 C          -2.1339   -0.4098   -0.4659 C.ar    1  UNL1       -0.0079
     14 C          -0.8197   -0.0535   -0.1850 C.ar    1  UNL1        0.1565
     15 O           0.3106   -0.7082   -0.5909 O.2     1  UNL1       -0.4510
     16 C           1.3315    0.0280   -0.0623 C.ar    1  UNL1        0.1636
     17 C           2.7235    0.0204   -0.0241 C.ar    1  UNL1        0.0501
     18 C           3.7482   -0.7930   -0.5414 C.ar    1  UNL1       -0.0091
     19 C           3.7585   -1.9007   -1.2888 C.2     1  UNL1       -0.0718
     20 C          -4.5542    0.1514   -0.1543 C.ar    1  UNL1        0.0018
     21 C          -5.4736    0.0866    0.9013 C.ar    1  UNL1       -0.0511
     22 C          -6.8188   -0.1786    0.6489 C.ar    1  UNL1       -0.0430
     23 C          -7.2152   -0.3739   -0.6624 C.ar    1  UNL1        0.0276
     24 N          -6.3707   -0.3218   -1.7122 N.ar    1  UNL1       -0.2627
     25 C          -5.0697   -0.0625   -1.4342 C.ar    1  UNL1        0.0353
     26 H           5.4263   -2.3064   -2.5910 H       1  UNL1        0.0350
     27 H           5.3805   -3.3073   -1.1085 H       1  UNL1        0.0350
     28 H           7.0478   -1.2263   -0.7320 H       1  UNL1        0.0581
     29 H           6.4442    1.0515    0.7867 H       1  UNL1        0.0624
     30 H           4.5771    2.4381    1.6647 H       1  UNL1        0.0638
     31 H           1.8531    2.6286    1.7084 H       1  UNL1        0.1661
     32 H          -3.4575    2.2181    1.2531 H       1  UNL1        0.0836
     33 H          -2.3579   -1.2918   -1.0536 H       1  UNL1        0.0661
     34 H           2.8908   -2.4193   -1.6658 H       1  UNL1        0.0581
     35 H          -5.1487    0.2267    1.9301 H       1  UNL1        0.0625
     36 H          -7.5386   -0.2359    1.4578 H       1  UNL1        0.0633
     37 H          -8.2516   -0.5848   -0.9101 H       1  UNL1        0.0829
     38 H          -4.4293   -0.0213   -2.3127 H       1  UNL1        0.0836
@<TRIPOS>BOND
     1     1     2    1
     2     2     3    2
     3     3     4   ar
     4     4     5   ar
     5     5     6   ar
     6     6     7   ar
     7     7     8   ar
     8     8     9   ar
     9     9    10   ar
    10    10    11   ar
    11    11    12   ar
    12    12    13   ar
    13    13    14   ar
    14    14    15   ar
    15    15    16   ar
    16    16    17   ar
    17    17    18   ar
    18    18    19    2
    19    12    20    1
    20    20    21   ar
    21    21    22   ar
    22    22    23   ar
    23    23    24   ar
    24    24    25   ar
    25    19     1    1
    26    25    20   ar
    27    18     3   ar
    28    17     6   ar
    29    16     8   ar
    30    14     9   ar
    31     1    26    1
    32     1    27    1
    33     2    28    1
    34     4    29    1
    35     5    30    1
    36     7    31    1
    37    11    32    1
    38    13    33    1
    39    19    34    1
    40    21    35    1
    41    22    36    1
    42    23    37    1
    43    25    38    1
