@<TRIPOS>MOLECULE
*****
 47 54 0 0 0
SMALL
GASTEIGER

@<TRIPOS>ATOM
      1 C          -3.9520    3.8988   -0.2048 C.3     1  UNL1        0.0000
      2 C          -5.1421    2.9986   -0.2649 C.2     1  UNL1        0.0000
      3 C          -4.7255    1.7270   -0.2348 C.ar    1  UNL1        0.0000
      4 C          -5.5194    0.5383   -0.2718 C.ar    1  UNL1        0.0000
      5 C          -4.8795   -0.6414   -0.2302 C.ar    1  UNL1        0.0000
      6 C          -3.3995   -0.7874   -0.1482 C.ar    1  UNL1        0.0000
      7 C          -2.5899    0.3408   -0.1099 C.ar    1  UNL1        0.0000
      8 C          -1.1700    0.0824   -0.0303 C.ar    1  UNL1        0.0000
      9 N          -0.1903    1.0609    0.0187 N.ar    1  UNL1        0.0000
     10 C           1.0052    0.4328    0.0877 C.ar    1  UNL1        0.0000
     11 C           2.3318    0.8700    0.1585 C.2     1  UNL1        0.0000
     12 C           3.0915   -0.2615    0.2062 C.2     1  UNL1        0.0000
     13 C           2.1791   -1.5461    0.1626 C.3     1  UNL1        0.0000
     14 C           0.8460   -0.9188    0.0860 C.ar    1  UNL1        0.0000
     15 C          -0.5203   -1.1562    0.0120 C.ar    1  UNL1        0.0000
     16 C          -1.3001   -2.3350   -0.0246 C.ar    1  UNL1        0.0000
     17 C          -0.8610   -3.6067    0.0063 C.2     1  UNL1        0.0000
     18 SI         -2.2849   -4.7946   -0.0656 Si      1  UNL1        0.0000
     19 C          -3.4442   -3.3261   -0.1371 C.2     1  UNL1        0.0000
     20 C          -2.7746   -2.1505   -0.1066 C.ar    1  UNL1        0.0000
     21 C           4.5162   -0.2146    0.2843 C.ar    1  UNL1        0.0000
     22 S           5.4349   -1.7201    0.3424 S.2     1  UNL1        0.0000
     23 C           6.9707   -0.9369    0.4229 C.ar    1  UNL1        0.0000
     24 C           6.7500    0.3871    0.4040 C.ar    1  UNL1        0.0000
     25 O           7.7057    1.3545    0.4517 O.2     1  UNL1        0.0000
     26 C           6.9016    2.4755    0.4018 C.ar    1  UNL1        0.0000
     27 C           5.5318    2.1944    0.3279 C.ar    1  UNL1        0.0000
     28 C           5.4362    0.7863    0.3298 C.ar    1  UNL1        0.0000
     29 C          -3.2657    1.6550   -0.1544 C.ar    1  UNL1        0.0000
     30 C          -2.8094    2.9215   -0.1368 C.2     1  UNL1        0.0000
     31 H          -3.8815    4.5231   -1.1004 H       1  UNL1        0.0000
     32 H          -3.9793    4.5332    0.6860 H       1  UNL1        0.0000
     33 H          -6.1656    3.3349   -0.3229 H       1  UNL1        0.0000
     34 H          -6.5990    0.6022   -0.3314 H       1  UNL1        0.0000
     35 H          -5.4779   -1.5446   -0.2581 H       1  UNL1        0.0000
     36 H          -0.3264    2.0568    0.0064 H       1  UNL1        0.0000
     37 H           2.6506    1.8986    0.1706 H       1  UNL1        0.0000
     38 H           2.2984   -2.1376    1.0752 H       1  UNL1        0.0000
     39 H           2.3975   -2.1470   -0.7251 H       1  UNL1        0.0000
     40 H           0.1616   -3.9412    0.0643 H       1  UNL1        0.0000
     41 H          -2.4465   -5.5761    1.1842 H       1  UNL1        0.0000
     42 H          -2.3091   -5.5895   -1.3170 H       1  UNL1        0.0000
     43 H          -4.5056   -3.4943   -0.1945 H       1  UNL1        0.0000
     44 H           7.9136   -1.4607    0.4773 H       1  UNL1        0.0000
     45 H           7.4490    3.4088    0.4272 H       1  UNL1        0.0000
     46 H           4.7452    2.9319    0.2810 H       1  UNL1        0.0000
     47 H          -1.7975    3.2736   -0.0835 H       1  UNL1        0.0000
@<TRIPOS>BOND
     1     1     2    1
     2     2     3    2
     3     3     4   ar
     4     4     5   ar
     5     5     6   ar
     6     6     7   ar
     7     7     8   ar
     8     8     9   ar
     9     9    10   ar
    10    10    11    1
    11    11    12    2
    12    12    13    1
    13    13    14    1
    14    14    15   ar
    15    15    16   ar
    16    16    17    2
    17    17    18    1
    18    18    19    1
    19    19    20    2
    20    12    21    1
    21    21    22   ar
    22    22    23   ar
    23    23    24   ar
    24    24    25   ar
    25    25    26   ar
    26    26    27   ar
    27    27    28   ar
    28     7    29   ar
    29    29    30    2
    30    30     1    1
    31    29     3   ar
    32    20     6   ar
    33    28    21   ar
    34    15     8   ar
    35    20    16   ar
    36    28    24   ar
    37    14    10   ar
    38     1    31    1
    39     1    32    1
    40     2    33    1
    41     4    34    1
    42     5    35    1
    43     9    36    1
    44    11    37    1
    45    13    38    1
    46    13    39    1
    47    17    40    1
    48    18    41    1
    49    18    42    1
    50    19    43    1
    51    23    44    1
    52    26    45    1
    53    27    46    1
    54    30    47    1
