@<TRIPOS>MOLECULE
*****
 50 57 0 0 0
SMALL
GASTEIGER

@<TRIPOS>ATOM
      1 C          -5.4896    3.2291   -0.6164 C.3     1  UNL1        0.0000
      2 C          -6.3447    2.0052   -0.6423 C.2     1  UNL1        0.0000
      3 C          -5.5701    0.9327   -0.4388 C.ar    1  UNL1        0.0000
      4 C          -5.9773   -0.4276   -0.2836 C.ar    1  UNL1        0.0000
      5 C          -5.0301   -1.3212    0.0408 C.ar    1  UNL1        0.0000
      6 C          -3.5875   -0.9898    0.1953 C.ar    1  UNL1        0.0000
      7 C          -3.1183    0.2875   -0.0657 C.ar    1  UNL1        0.0000
      8 C          -1.6459    0.4939   -0.1160 C.ar    1  UNL1        0.0000
      9 SI         -0.7898    2.0692   -0.9036 Si      1  UNL1        0.0000
     10 C           0.8547    1.2723   -0.6357 C.ar    1  UNL1        0.0000
     11 C           2.2161    1.4652   -0.8087 C.ar    1  UNL1        0.0000
     12 C           2.8273    0.3046   -0.3385 C.ar    1  UNL1        0.0000
     13 N           1.8225   -0.5545    0.0960 N.ar    1  UNL1        0.0000
     14 C           0.6128    0.0464   -0.0718 C.ar    1  UNL1        0.0000
     15 C          -0.6967   -0.4412    0.2147 C.ar    1  UNL1        0.0000
     16 C          -1.1603   -1.7358    0.6761 C.ar    1  UNL1        0.0000
     17 C          -0.4047   -2.7461    1.1546 C.2     1  UNL1        0.0000
     18 SI         -1.4401   -4.2362    1.5833 Si      1  UNL1        0.0000
     19 C          -2.9371   -3.2707    1.0478 C.2     1  UNL1        0.0000
     20 C          -2.6158   -2.0296    0.6182 C.ar    1  UNL1        0.0000
     21 C           4.2266   -0.0656   -0.2795 C.ar    1  UNL1        0.0000
     22 C           4.7536   -1.3081   -0.7134 C.ar    1  UNL1        0.0000
     23 C           6.1511   -1.6593   -0.6508 C.ar    1  UNL1        0.0000
     24 C           7.1656   -0.8120   -0.1461 C.ar    1  UNL1        0.0000
     25 C           6.6206    0.3935    0.2748 C.ar    1  UNL1        0.0000
     26 C           7.2904    1.4509    0.8285 C.ar    1  UNL1        0.0000
     27 O           6.4004    2.4465    1.1283 O.2     1  UNL1        0.0000
     28 C           5.1550    2.0127    0.7586 C.ar    1  UNL1        0.0000
     29 C           5.2413    0.7563    0.2154 C.ar    1  UNL1        0.0000
     30 C          -4.1629    1.3147   -0.3096 C.ar    1  UNL1        0.0000
     31 C          -4.1214    2.6591   -0.3621 C.2     1  UNL1        0.0000
     32 H          -5.5244    3.7616   -1.5712 H       1  UNL1        0.0000
     33 H          -5.7895    3.9015    0.1928 H       1  UNL1        0.0000
     34 H          -7.4180    2.0076   -0.7518 H       1  UNL1        0.0000
     35 H          -7.0172   -0.7077   -0.3975 H       1  UNL1        0.0000
     36 H          -5.3297   -2.3553    0.1676 H       1  UNL1        0.0000
     37 H          -1.1673    2.2361   -2.3318 H       1  UNL1        0.0000
     38 H          -0.9866    3.2822   -0.0653 H       1  UNL1        0.0000
     39 H           2.7253    2.3200   -1.2354 H       1  UNL1        0.0000
     40 H           1.9903   -1.4688    0.4852 H       1  UNL1        0.0000
     41 H           0.6562   -2.7822    1.3124 H       1  UNL1        0.0000
     42 H          -1.1542   -5.3907    0.6982 H       1  UNL1        0.0000
     43 H          -1.4337   -4.5294    3.0362 H       1  UNL1        0.0000
     44 H          -3.9143   -3.7135    1.1380 H       1  UNL1        0.0000
     45 H           4.0734   -2.0443   -1.1431 H       1  UNL1        0.0000
     46 H           6.4421   -2.6428   -1.0233 H       1  UNL1        0.0000
     47 H           8.2096   -1.0869   -0.1036 H       1  UNL1        0.0000
     48 H           8.3216    1.6589    1.0754 H       1  UNL1        0.0000
     49 H           4.3477    2.7041    0.9536 H       1  UNL1        0.0000
     50 H          -3.2769    3.3072   -0.2165 H       1  UNL1        0.0000
@<TRIPOS>BOND
     1     1     2    1
     2     2     3    2
     3     3     4   ar
     4     4     5   ar
     5     5     6   ar
     6     6     7   ar
     7     7     8   ar
     8     8     9    1
     9     9    10    1
    10    10    11   ar
    11    11    12   ar
    12    12    13   ar
    13    13    14   ar
    14    14    15    1
    15    15    16   ar
    16    16    17    2
    17    17    18    1
    18    18    19    1
    19    19    20    2
    20    12    21    1
    21    21    22   ar
    22    22    23   ar
    23    23    24   ar
    24    24    25   ar
    25    25    26   ar
    26    26    27   ar
    27    27    28   ar
    28    28    29   ar
    29     7    30   ar
    30    30    31    2
    31    31     1    1
    32    30     3   ar
    33    20     6   ar
    34    29    21   ar
    35    15     8   ar
    36    20    16   ar
    37    29    25   ar
    38    14    10   ar
    39     1    32    1
    40     1    33    1
    41     2    34    1
    42     4    35    1
    43     5    36    1
    44     9    37    1
    45     9    38    1
    46    11    39    1
    47    13    40    1
    48    17    41    1
    49    18    42    1
    50    18    43    1
    51    19    44    1
    52    22    45    1
    53    23    46    1
    54    24    47    1
    55    26    48    1
    56    28    49    1
    57    31    50    1
