@<TRIPOS>MOLECULE
*****
 44 50 0 0 0
SMALL
GASTEIGER

@<TRIPOS>ATOM
      1 C          -3.6148   -3.2804    0.9309 C.3     1  UNL1        0.0000
      2 C          -4.6830   -2.2949    0.5652 C.2     1  UNL1        0.0000
      3 C          -4.1054   -1.1357    0.2260 C.ar    1  UNL1        0.0000
      4 C          -4.7183    0.1236   -0.0680 C.ar    1  UNL1        0.0000
      5 C          -3.9082    1.1900   -0.1917 C.ar    1  UNL1        0.0000
      6 C          -2.4215    1.1213   -0.1031 C.ar    1  UNL1        0.0000
      7 C          -1.7906   -0.1011   -0.0526 C.ar    1  UNL1        0.0000
      8 C          -0.3042   -0.1584   -0.2128 C.ar    1  UNL1        0.0000
      9 C           0.4280   -1.2568   -0.7245 C.ar    1  UNL1        0.0000
     10 C          -0.1117   -2.3254   -1.4070 C.ar    1  UNL1        0.0000
     11 S           1.0670   -3.4914   -1.8472 S.2     1  UNL1        0.0000
     12 C           2.3439   -2.5204   -1.2474 C.ar    1  UNL1        0.0000
     13 C           1.8813   -1.3275   -0.7385 C.ar    1  UNL1        0.0000
     14 C           2.7157   -0.2974   -0.2815 C.ar    1  UNL1        0.0000
     15 C           1.9914    0.8587    0.0809 C.ar    1  UNL1        0.0000
     16 C           0.5563    0.9509    0.0703 C.ar    1  UNL1        0.0000
     17 C          -0.1245    2.2610    0.2003 C.ar    1  UNL1        0.0000
     18 C           0.4818    3.4508    0.4020 C.2     1  UNL1        0.0000
     19 SI         -0.7329    4.8623    0.3305 Si      1  UNL1        0.0000
     20 C          -2.0722    3.6045    0.0170 C.2     1  UNL1        0.0000
     21 C          -1.5922    2.3407   -0.0060 C.ar    1  UNL1        0.0000
     22 C           4.1666   -0.3553   -0.3016 C.ar    1  UNL1        0.0000
     23 C           5.0228   -0.3957   -1.3850 C.ar    1  UNL1        0.0000
     24 C           6.3924   -0.4471   -0.9934 C.ar    1  UNL1        0.0000
     25 C           6.5361   -0.4390    0.3758 C.ar    1  UNL1        0.0000
     26 S           5.0280   -0.3667    1.1793 S.2     1  UNL1        0.0000
     27 C          -2.6524   -1.2528    0.2718 C.ar    1  UNL1        0.0000
     28 C          -2.3581   -2.4789    0.7404 C.2     1  UNL1        0.0000
     29 H          -3.6326   -4.1513    0.2695 H       1  UNL1        0.0000
     30 H          -3.7188   -3.6035    1.9709 H       1  UNL1        0.0000
     31 H          -5.7426   -2.4834    0.6401 H       1  UNL1        0.0000
     32 H          -5.7955    0.2071   -0.1399 H       1  UNL1        0.0000
     33 H          -4.3583    2.1563   -0.3896 H       1  UNL1        0.0000
     34 H          -1.1402   -2.5121   -1.6805 H       1  UNL1        0.0000
     35 H           3.3619   -2.8734   -1.3396 H       1  UNL1        0.0000
     36 H           2.5751    1.7395    0.3443 H       1  UNL1        0.0000
     37 H           1.5290    3.6570    0.5448 H       1  UNL1        0.0000
     38 H          -0.5034    5.7501   -0.8345 H       1  UNL1        0.0000
     39 H          -0.8893    5.5466    1.6363 H       1  UNL1        0.0000
     40 H          -3.0943    3.9318   -0.0688 H       1  UNL1        0.0000
     41 H           4.6817   -0.3874   -2.4137 H       1  UNL1        0.0000
     42 H           7.2284   -0.4858   -1.6811 H       1  UNL1        0.0000
     43 H           7.4541   -0.4695    0.9465 H       1  UNL1        0.0000
     44 H          -1.3762   -2.8612    0.9730 H       1  UNL1        0.0000
@<TRIPOS>BOND
     1     1     2    1
     2     2     3    2
     3     3     4   ar
     4     4     5   ar
     5     5     6   ar
     6     6     7   ar
     7     7     8   ar
     8     8     9   ar
     9     9    10   ar
    10    10    11   ar
    11    11    12   ar
    12    12    13   ar
    13    13    14   ar
    14    14    15   ar
    15    15    16   ar
    16    16    17   ar
    17    17    18    2
    18    18    19    1
    19    19    20    1
    20    20    21    2
    21    14    22    1
    22    22    23   ar
    23    23    24   ar
    24    24    25   ar
    25    25    26   ar
    26     7    27   ar
    27    27    28    2
    28    28     1    1
    29    27     3   ar
    30    21     6   ar
    31    26    22   ar
    32    16     8   ar
    33    21    17   ar
    34    13     9   ar
    35     1    29    1
    36     1    30    1
    37     2    31    1
    38     4    32    1
    39     5    33    1
    40    10    34    1
    41    12    35    1
    42    15    36    1
    43    18    37    1
    44    19    38    1
    45    19    39    1
    46    20    40    1
    47    23    41    1
    48    24    42    1
    49    25    43    1
    50    28    44    1
