@<TRIPOS>MOLECULE
*****
 49 56 0 0 0
SMALL
GASTEIGER

@<TRIPOS>ATOM
      1 C          -2.4636    4.2479    0.4649 C.3     1  UNL1        0.0000
      2 C          -3.7781    3.9067    1.0930 C.2     1  UNL1        0.0000
      3 C          -3.9174    2.5754    1.1091 C.ar    1  UNL1        0.0000
      4 C          -5.0533    1.8036    1.5063 C.ar    1  UNL1        0.0000
      5 C          -5.0084    0.4793    1.2835 C.ar    1  UNL1        0.0000
      6 C          -3.8331   -0.2330    0.7059 C.ar    1  UNL1        0.0000
      7 C          -2.6559    0.4447    0.4716 C.ar    1  UNL1        0.0000
      8 C          -1.3955   -0.3252    0.1197 C.ar    1  UNL1        0.0000
      9 C          -0.1285    0.2672    0.3007 C.ar    1  UNL1        0.0000
     10 C           1.0008   -0.4502   -0.0879 C.ar    1  UNL1        0.0000
     11 O           2.2812   -0.0041   -0.0147 O.2     1  UNL1        0.0000
     12 C           3.1077   -0.9926   -0.4966 C.ar    1  UNL1        0.0000
     13 C           2.3177   -2.0738   -0.8644 C.ar    1  UNL1        0.0000
     14 C           0.9669   -1.7302   -0.6013 C.ar    1  UNL1        0.0000
     15 C          -0.2770   -2.3694   -0.7052 C.ar    1  UNL1        0.0000
     16 C          -1.4483   -1.6775   -0.3142 C.ar    1  UNL1        0.0000
     17 C          -2.7490   -2.3693   -0.2341 C.ar    1  UNL1        0.0000
     18 C          -2.9894   -3.6470   -0.6006 C.2     1  UNL1        0.0000
     19 SI         -4.7433   -4.1502   -0.2253 Si      1  UNL1        0.0000
     20 C          -5.0175   -2.4310    0.4399 C.2     1  UNL1        0.0000
     21 C          -3.9070   -1.6640    0.3530 C.ar    1  UNL1        0.0000
     22 C           4.5358   -0.8346   -0.5606 C.ar    1  UNL1        0.0000
     23 S           5.5879   -2.0669   -1.1813 S.2     1  UNL1        0.0000
     24 C           7.0156   -1.1322   -0.9162 C.ar    1  UNL1        0.0000
     25 C           6.6939    0.0794   -0.3716 C.ar    1  UNL1        0.0000
     26 C           7.4145    1.3030    0.0821 C.3     1  UNL1        0.0000
     27 C           6.2383    2.1601    0.5556 C.2     1  UNL1        0.0000
     28 C           5.0613    1.5147    0.3900 C.2     1  UNL1        0.0000
     29 C           5.2992    0.2342   -0.1770 C.ar    1  UNL1        0.0000
     30 C          -2.7315    1.9216    0.5621 C.ar    1  UNL1        0.0000
     31 C          -1.9027    2.8928    0.1360 C.2     1  UNL1        0.0000
     32 H          -2.6045    4.8435   -0.4419 H       1  UNL1        0.0000
     33 H          -1.8153    4.7854    1.1630 H       1  UNL1        0.0000
     34 H          -4.5100    4.6302    1.4166 H       1  UNL1        0.0000
     35 H          -5.9231    2.2857    1.9347 H       1  UNL1        0.0000
     36 H          -5.8707   -0.1135    1.5666 H       1  UNL1        0.0000
     37 H           0.0061    1.2399    0.7519 H       1  UNL1        0.0000
     38 H           2.6750   -3.0104   -1.2686 H       1  UNL1        0.0000
     39 H          -0.3104   -3.3960   -1.0509 H       1  UNL1        0.0000
     40 H          -2.3090   -4.3617   -1.0315 H       1  UNL1        0.0000
     41 H          -5.5329   -4.4199   -1.4507 H       1  UNL1        0.0000
     42 H          -4.8231   -5.1888    0.8298 H       1  UNL1        0.0000
     43 H          -5.9957   -2.1536    0.7939 H       1  UNL1        0.0000
     44 H           7.9880   -1.5275   -1.1739 H       1  UNL1        0.0000
     45 H           8.0982    1.0899    0.9084 H       1  UNL1        0.0000
     46 H           7.9456    1.7910   -0.7398 H       1  UNL1        0.0000
     47 H           6.3505    3.1517    0.9679 H       1  UNL1        0.0000
     48 H           4.0847    1.9020    0.6461 H       1  UNL1        0.0000
     49 H          -0.9749    2.7727   -0.3992 H       1  UNL1        0.0000
@<TRIPOS>BOND
     1     1     2    1
     2     2     3    2
     3     3     4   ar
     4     4     5   ar
     5     5     6   ar
     6     6     7   ar
     7     7     8   ar
     8     8     9   ar
     9     9    10   ar
    10    10    11   ar
    11    11    12   ar
    12    12    13   ar
    13    13    14   ar
    14    14    15   ar
    15    15    16   ar
    16    16    17   ar
    17    17    18    2
    18    18    19    1
    19    19    20    1
    20    20    21    2
    21    12    22    1
    22    22    23   ar
    23    23    24   ar
    24    24    25   ar
    25    25    26    1
    26    26    27    1
    27    27    28    2
    28    28    29    1
    29     7    30   ar
    30    30    31    2
    31    31     1    1
    32    30     3   ar
    33    21     6   ar
    34    29    22   ar
    35    16     8   ar
    36    21    17   ar
    37    29    25   ar
    38    14    10   ar
    39     1    32    1
    40     1    33    1
    41     2    34    1
    42     4    35    1
    43     5    36    1
    44     9    37    1
    45    13    38    1
    46    15    39    1
    47    18    40    1
    48    19    41    1
    49    19    42    1
    50    20    43    1
    51    24    44    1
    52    26    45    1
    53    26    46    1
    54    27    47    1
    55    28    48    1
    56    31    49    1
