@<TRIPOS>MOLECULE
*****
 47 54 0 0 0
SMALL
GASTEIGER

@<TRIPOS>ATOM
      1 C          -3.6267   -4.2173    0.5116 C.3     1  UNL1       -0.0148
      2 C          -4.8973   -3.5647    0.0663 C.2     1  UNL1       -0.0725
      3 C          -4.6612   -2.2664   -0.1599 C.ar    1  UNL1       -0.0212
      4 C          -5.5992   -1.2361   -0.4855 C.ar    1  UNL1       -0.0537
      5 C          -5.1432    0.0272   -0.5170 C.ar    1  UNL1       -0.0529
      6 C          -3.7218    0.4004   -0.2943 C.ar    1  UNL1       -0.0093
      7 C          -2.7514   -0.5673   -0.1308 C.ar    1  UNL1       -0.0021
      8 C          -1.2797   -0.1691   -0.1186 C.ar    1  UNL1       -0.0079
      9 C          -0.2669   -1.1174   -0.3500 C.ar    1  UNL1       -0.0391
     10 C           1.0952   -0.7529   -0.2807 C.ar    1  UNL1        0.0205
     11 S           2.4546   -1.7832   -0.4864 S.2     1  UNL1       -0.0876
     12 C           3.5833   -0.5189   -0.2226 C.ar    1  UNL1        0.0306
     13 C           2.9178    0.6721    0.0014 C.ar    1  UNL1       -0.0386
     14 C           1.4878    0.5554   -0.0308 C.ar    1  UNL1       -0.0096
     15 C           0.4793    1.5330    0.1113 C.ar    1  UNL1       -0.0452
     16 C          -0.8809    1.1776    0.0369 C.ar    1  UNL1       -0.0092
     17 C          -1.9322    2.1954    0.0080 C.ar    1  UNL1       -0.0135
     18 C          -1.8526    3.5333    0.1037 C.2     1  UNL1       -0.0719
     19 C          -3.2163    4.1292   -0.0644 C.3     1  UNL1       -0.0148
     20 C          -4.0706    2.9141   -0.2667 C.2     1  UNL1       -0.0719
     21 C          -3.3129    1.8034   -0.2211 C.ar    1  UNL1       -0.0135
     22 C           5.0075   -0.7367   -0.2571 C.ar    1  UNL1        0.0687
     23 S           5.7901   -2.2932   -0.1678 S.2     1  UNL1       -0.0918
     24 C           7.3935   -1.6313   -0.2630 C.ar    1  UNL1       -0.0128
     25 C           7.2737   -0.2918   -0.3559 C.ar    1  UNL1        0.0278
     26 C           8.0782    0.8519   -0.4651 C.ar    1  UNL1       -0.0156
     27 C           7.1762    1.9212   -0.5179 C.ar    1  UNL1        0.0932
     28 O           5.8472    1.5468   -0.4496 O.2     1  UNL1       -0.4618
     29 C           5.9870    0.1927   -0.3516 C.ar    1  UNL1        0.1500
     30 C          -3.2502   -1.9492    0.0553 C.ar    1  UNL1       -0.0135
     31 C          -2.6538   -3.0715    0.4979 C.2     1  UNL1       -0.0719
     32 H          -3.7299   -4.6306    1.5193 H       1  UNL1        0.0350
     33 H          -3.3189   -5.0057   -0.1813 H       1  UNL1        0.0350
     34 H          -5.8531   -4.0609    0.0046 H       1  UNL1        0.0581
     35 H          -6.6411   -1.4760   -0.6578 H       1  UNL1        0.0624
     36 H          -5.8439    0.8246   -0.7401 H       1  UNL1        0.0624
     37 H          -0.5044   -2.1397   -0.6180 H       1  UNL1        0.0635
     38 H           3.4248    1.6121    0.1833 H       1  UNL1        0.0635
     39 H           0.7758    2.5685    0.2479 H       1  UNL1        0.0630
     40 H          -0.9609    4.1210    0.2531 H       1  UNL1        0.0581
     41 H          -3.5193    4.6807    0.8303 H       1  UNL1        0.0350
     42 H          -3.2554    4.7887   -0.9363 H       1  UNL1        0.0350
     43 H          -5.1400    2.9630   -0.3956 H       1  UNL1        0.0581
     44 H           8.2691   -2.2643   -0.2446 H       1  UNL1        0.0701
     45 H           9.1554    0.9254   -0.5046 H       1  UNL1        0.0655
     46 H           7.3254    2.9898   -0.6036 H       1  UNL1        0.1030
     47 H          -1.6381   -3.1832    0.8398 H       1  UNL1        0.0581
@<TRIPOS>BOND
     1     1     2    1
     2     2     3    2
     3     3     4   ar
     4     4     5   ar
     5     5     6   ar
     6     6     7   ar
     7     7     8   ar
     8     8     9   ar
     9     9    10   ar
    10    10    11   ar
    11    11    12   ar
    12    12    13   ar
    13    13    14   ar
    14    14    15   ar
    15    15    16   ar
    16    16    17   ar
    17    17    18    2
    18    18    19    1
    19    19    20    1
    20    20    21    2
    21    12    22    1
    22    22    23   ar
    23    23    24   ar
    24    24    25   ar
    25    25    26   ar
    26    26    27   ar
    27    27    28   ar
    28    28    29   ar
    29     7    30   ar
    30    30    31    2
    31    31     1    1
    32    30     3   ar
    33    21     6   ar
    34    29    22   ar
    35    16     8   ar
    36    21    17   ar
    37    29    25   ar
    38    14    10   ar
    39     1    32    1
    40     1    33    1
    41     2    34    1
    42     4    35    1
    43     5    36    1
    44     9    37    1
    45    13    38    1
    46    15    39    1
    47    18    40    1
    48    19    41    1
    49    19    42    1
    50    20    43    1
    51    24    44    1
    52    26    45    1
    53    27    46    1
    54    31    47    1
