@<TRIPOS>MOLECULE
*****
 47 54 0 0 0
SMALL
GASTEIGER

@<TRIPOS>ATOM
      1 C          -5.1943    3.1130    0.7994 C.3     1  UNL1       -0.0148
      2 C          -6.1370    1.9905    0.4996 C.2     1  UNL1       -0.0725
      3 C          -5.4268    0.8911    0.2189 C.ar    1  UNL1       -0.0212
      4 C          -5.9003   -0.4387   -0.0145 C.ar    1  UNL1       -0.0537
      5 C          -4.9805   -1.4111   -0.1315 C.ar    1  UNL1       -0.0529
      6 C          -3.5131   -1.1739   -0.0905 C.ar    1  UNL1       -0.0092
      7 C          -3.0079    0.1059   -0.0206 C.ar    1  UNL1       -0.0007
      8 C          -1.5197    0.3307   -0.1952 C.ar    1  UNL1        0.0102
      9 C          -1.0052    1.5776   -0.5277 C.ar    1  UNL1        0.0366
     10 N           0.2947    1.9108   -0.6572 N.ar    1  UNL1       -0.2538
     11 C           1.1817    0.9023   -0.4753 C.ar    1  UNL1        0.0792
     12 C           2.5939    1.0749   -0.5450 C.ar    1  UNL1       -0.0203
     13 C           3.2956   -0.0978   -0.3690 C.ar    1  UNL1        0.0307
     14 S           2.2153   -1.3974   -0.1131 S.2     1  UNL1       -0.0854
     15 C           0.7997   -0.4193   -0.2281 C.ar    1  UNL1        0.0464
     16 C          -0.5798   -0.7263   -0.1261 C.ar    1  UNL1        0.0074
     17 C          -1.1141   -2.0935   -0.0513 C.ar    1  UNL1       -0.0123
     18 C          -0.5256   -3.3015    0.0053 C.2     1  UNL1       -0.0719
     19 C          -1.5565   -4.3863   -0.0108 C.3     1  UNL1       -0.0148
     20 C          -2.8289   -3.6066   -0.0815 C.2     1  UNL1       -0.0719
     21 C          -2.5633   -2.2881   -0.1025 C.ar    1  UNL1       -0.0134
     22 C           4.7352   -0.2628   -0.3774 C.ar    1  UNL1        0.0534
     23 S           5.4838   -1.7301   -0.9158 S.2     1  UNL1       -0.0918
     24 C           7.0681   -1.1402   -0.6507 C.ar    1  UNL1        0.0038
     25 C           7.0462    0.1410   -0.1690 C.ar    1  UNL1        0.0968
     26 N           8.1806    0.8354    0.1239 N.ar    1  UNL1       -0.2514
     27 C           7.8780    2.0782    0.5876 C.ar    1  UNL1        0.0464
     28 C           6.5833    2.5849    0.7457 C.ar    1  UNL1        0.0464
     29 N           5.4366    1.9110    0.4586 N.ar    1  UNL1       -0.2508
     30 C           5.7044    0.6552   -0.0117 C.ar    1  UNL1        0.1044
     31 C          -3.9936    1.1753    0.2540 C.ar    1  UNL1       -0.0134
     32 C          -3.8504    2.4562    0.6415 C.2     1  UNL1       -0.0719
     33 H          -5.3169    3.9372    0.0908 H       1  UNL1        0.0350
     34 H          -5.3326    3.4799    1.8207 H       1  UNL1        0.0350
     35 H          -7.2118    2.0582    0.5645 H       1  UNL1        0.0581
     36 H          -6.9629   -0.6445   -0.0543 H       1  UNL1        0.0624
     37 H          -5.3234   -2.4283   -0.2882 H       1  UNL1        0.0624
     38 H          -1.6589    2.4129   -0.7563 H       1  UNL1        0.0836
     39 H           3.0596    2.0350   -0.7285 H       1  UNL1        0.0651
     40 H           0.5256   -3.5288    0.0375 H       1  UNL1        0.0581
     41 H          -1.5106   -4.9882    0.9014 H       1  UNL1        0.0350
     42 H          -1.4383   -5.0320   -0.8858 H       1  UNL1        0.0350
     43 H          -3.8008   -4.0735   -0.0801 H       1  UNL1        0.0581
     44 H           7.9324   -1.7539   -0.8589 H       1  UNL1        0.0715
     45 H           8.7378    2.6911    0.8435 H       1  UNL1        0.0845
     46 H           6.4358    3.5924    1.1253 H       1  UNL1        0.0845
     47 H          -2.9349    2.9819    0.8586 H       1  UNL1        0.0581
@<TRIPOS>BOND
     1     1     2    1
     2     2     3    2
     3     3     4   ar
     4     4     5   ar
     5     5     6   ar
     6     6     7   ar
     7     7     8   ar
     8     8     9   ar
     9     9    10   ar
    10    10    11   ar
    11    11    12   ar
    12    12    13   ar
    13    13    14   ar
    14    14    15   ar
    15    15    16   ar
    16    16    17   ar
    17    17    18    2
    18    18    19    1
    19    19    20    1
    20    20    21    2
    21    13    22    1
    22    22    23   ar
    23    23    24   ar
    24    24    25   ar
    25    25    26   ar
    26    26    27   ar
    27    27    28   ar
    28    28    29   ar
    29    29    30   ar
    30     7    31   ar
    31    31    32    2
    32    32     1    1
    33    31     3   ar
    34    21     6   ar
    35    30    22   ar
    36    16     8   ar
    37    21    17   ar
    38    30    25   ar
    39    15    11   ar
    40     1    33    1
    41     1    34    1
    42     2    35    1
    43     4    36    1
    44     5    37    1
    45     9    38    1
    46    12    39    1
    47    18    40    1
    48    19    41    1
    49    19    42    1
    50    20    43    1
    51    24    44    1
    52    27    45    1
    53    28    46    1
    54    32    47    1
