@<TRIPOS>MOLECULE
*****
 45 51 0 0 0
SMALL
GASTEIGER

@<TRIPOS>ATOM
      1 C          -4.3336    3.7407    0.4932 C.3     1  UNL1        0.0000
      2 C          -5.4311    2.7183    0.4287 C.2     1  UNL1        0.0000
      3 C          -4.8859    1.4991    0.3316 C.ar    1  UNL1        0.0000
      4 C          -5.5256    0.2196    0.2428 C.ar    1  UNL1        0.0000
      5 C          -4.7421   -0.8714    0.1527 C.ar    1  UNL1        0.0000
      6 C          -3.2514   -0.8280    0.1398 C.ar    1  UNL1        0.0000
      7 C          -2.6063    0.3914    0.2240 C.ar    1  UNL1        0.0000
      8 C          -1.1590    0.3895    0.2081 C.ar    1  UNL1        0.0000
      9 O          -0.3476    1.5123    0.2832 O.2     1  UNL1        0.0000
     10 C           0.9287    1.0490    0.2346 C.ar    1  UNL1        0.0000
     11 C           2.2249    1.5825    0.2604 C.ar    1  UNL1        0.0000
     12 C           3.0706    0.4737    0.1681 C.ar    1  UNL1        0.0000
     13 N           2.2715   -0.6636    0.0917 N.ar    1  UNL1        0.0000
     14 C           0.9579   -0.2891    0.1341 C.ar    1  UNL1        0.0000
     15 C          -0.3632   -0.7462    0.1144 C.ar    1  UNL1        0.0000
     16 C          -0.9424   -2.0294    0.0248 C.ar    1  UNL1        0.0000
     17 C          -0.3176   -3.2173   -0.0707 C.2     1  UNL1        0.0000
     18 SI         -1.5558   -4.6072   -0.1611 Si      1  UNL1        0.0000
     19 C          -2.9208   -3.3320   -0.0509 C.2     1  UNL1        0.0000
     20 C          -2.4323   -2.0745    0.0377 C.ar    1  UNL1        0.0000
     21 C           4.5469    0.4172    0.1476 C.ar    1  UNL1        0.0000
     22 C           5.3039    1.5972    0.2265 C.ar    1  UNL1        0.0000
     23 C           6.7023    1.5659    0.2088 C.ar    1  UNL1        0.0000
     24 C           7.3716    0.3507    0.1115 C.ar    1  UNL1        0.0000
     25 C           6.6425   -0.8314    0.0322 C.ar    1  UNL1        0.0000
     26 C           5.2432   -0.7982    0.0501 C.ar    1  UNL1        0.0000
     27 C          -3.4326    1.5960    0.3231 C.ar    1  UNL1        0.0000
     28 C          -3.0956    2.8932    0.4164 C.2     1  UNL1        0.0000
     29 H          -4.3703    4.2998    1.4328 H       1  UNL1        0.0000
     30 H          -4.3897    4.4332   -0.3517 H       1  UNL1        0.0000
     31 H          -6.4846    2.9478    0.4573 H       1  UNL1        0.0000
     32 H          -6.6066    0.1505    0.2493 H       1  UNL1        0.0000
     33 H          -5.2205   -1.8420    0.0854 H       1  UNL1        0.0000
     34 H           2.4986    2.6241    0.3353 H       1  UNL1        0.0000
     35 H           2.5682   -1.6264    0.0162 H       1  UNL1        0.0000
     36 H           0.7422   -3.4052   -0.0963 H       1  UNL1        0.0000
     37 H          -1.5321   -5.3001   -1.4710 H       1  UNL1        0.0000
     38 H          -1.5048   -5.4870    1.0306 H       1  UNL1        0.0000
     39 H          -3.9491   -3.6512   -0.0635 H       1  UNL1        0.0000
     40 H           4.8175    2.5658    0.3035 H       1  UNL1        0.0000
     41 H           7.2646    2.4940    0.2712 H       1  UNL1        0.0000
     42 H           8.4579    0.3254    0.0976 H       1  UNL1        0.0000
     43 H           7.1610   -1.7837   -0.0440 H       1  UNL1        0.0000
     44 H           4.7200   -1.7464   -0.0142 H       1  UNL1        0.0000
     45 H          -2.0937    3.2935    0.4355 H       1  UNL1        0.0000
@<TRIPOS>BOND
     1     1     2    1
     2     2     3    2
     3     3     4   ar
     4     4     5   ar
     5     5     6   ar
     6     6     7   ar
     7     7     8   ar
     8     8     9   ar
     9     9    10   ar
    10    10    11   ar
    11    11    12   ar
    12    12    13   ar
    13    13    14   ar
    14    14    15   ar
    15    15    16   ar
    16    16    17    2
    17    17    18    1
    18    18    19    1
    19    19    20    2
    20    12    21    1
    21    21    22   ar
    22    22    23   ar
    23    23    24   ar
    24    24    25   ar
    25    25    26   ar
    26     7    27   ar
    27    27    28    2
    28    28     1    1
    29    27     3   ar
    30    20     6   ar
    31    26    21   ar
    32    15     8   ar
    33    20    16   ar
    34    14    10   ar
    35     1    29    1
    36     1    30    1
    37     2    31    1
    38     4    32    1
    39     5    33    1
    40    11    34    1
    41    13    35    1
    42    17    36    1
    43    18    37    1
    44    18    38    1
    45    19    39    1
    46    22    40    1
    47    23    41    1
    48    24    42    1
    49    25    43    1
    50    26    44    1
    51    28    45    1
