@<TRIPOS>MOLECULE
*****
 45 51 0 0 0
SMALL
GASTEIGER

@<TRIPOS>ATOM
      1 C          -5.0126    2.9985    1.8692 C.3     1  UNL1        0.0000
      2 C          -5.9103    2.0756    1.1124 C.2     1  UNL1        0.0000
      3 C          -5.1609    1.1611    0.4846 C.ar    1  UNL1        0.0000
      4 C          -5.6004    0.0890   -0.3497 C.ar    1  UNL1        0.0000
      5 C          -4.6618   -0.7112   -0.8781 C.ar    1  UNL1        0.0000
      6 C          -3.1968   -0.5527   -0.6507 C.ar    1  UNL1        0.0000
      7 C          -2.7179    0.4725    0.1516 C.ar    1  UNL1        0.0000
      8 C          -1.2619    0.5500    0.3179 C.ar    1  UNL1        0.0000
      9 S          -0.4644    1.7543    1.2784 S.2     1  UNL1        0.0000
     10 C           1.0860    1.1052    0.9078 C.ar    1  UNL1        0.0000
     11 C           2.4552    1.3561    1.1972 C.ar    1  UNL1        0.0000
     12 C           3.1908    0.3876    0.5273 C.ar    1  UNL1        0.0000
     13 N           2.2881   -0.4155   -0.1405 N.ar    1  UNL1        0.0000
     14 C           1.0080    0.0250    0.0940 C.ar    1  UNL1        0.0000
     15 C          -0.3256   -0.3118   -0.2570 C.ar    1  UNL1        0.0000
     16 C          -0.7692   -1.3785   -1.0876 C.ar    1  UNL1        0.0000
     17 C          -0.0254   -2.3044   -1.7247 C.2     1  UNL1        0.0000
     18 SI         -1.0922   -3.4871   -2.6883 Si      1  UNL1        0.0000
     19 C          -2.5775   -2.5357   -2.0874 C.2     1  UNL1        0.0000
     20 C          -2.2361   -1.4993   -1.2870 C.ar    1  UNL1        0.0000
     21 C           4.6511    0.1751    0.4765 C.ar    1  UNL1        0.0000
     22 C           5.5179    1.0280    1.1785 C.ar    1  UNL1        0.0000
     23 C           6.9043    0.8442    1.1437 C.ar    1  UNL1        0.0000
     24 C           7.4512   -0.1989    0.4042 C.ar    1  UNL1        0.0000
     25 C           6.6120   -1.0568   -0.2994 C.ar    1  UNL1        0.0000
     26 C           5.2250   -0.8713   -0.2634 C.ar    1  UNL1        0.0000
     27 C          -3.7371    1.3732    0.7491 C.ar    1  UNL1        0.0000
     28 C          -3.6505    2.4464    1.5578 C.2     1  UNL1        0.0000
     29 H          -5.2171    2.9586    2.9431 H       1  UNL1        0.0000
     30 H          -5.1107    4.0280    1.5126 H       1  UNL1        0.0000
     31 H          -6.9862    2.1489    1.0872 H       1  UNL1        0.0000
     32 H          -6.6562   -0.0606   -0.5402 H       1  UNL1        0.0000
     33 H          -4.9959   -1.5246   -1.5112 H       1  UNL1        0.0000
     34 H           2.8353    2.1525    1.8212 H       1  UNL1        0.0000
     35 H           2.4947   -1.2133   -0.7221 H       1  UNL1        0.0000
     36 H           1.0425   -2.4196   -1.7313 H       1  UNL1        0.0000
     37 H          -0.8888   -3.3659   -4.1514 H       1  UNL1        0.0000
     38 H          -1.0380   -4.8653   -2.1462 H       1  UNL1        0.0000
     39 H          -3.5592   -2.8511   -2.3962 H       1  UNL1        0.0000
     40 H           5.1287    1.8541    1.7674 H       1  UNL1        0.0000
     41 H           7.5531    1.5188    1.6963 H       1  UNL1        0.0000
     42 H           8.5279   -0.3426    0.3765 H       1  UNL1        0.0000
     43 H           7.0346   -1.8735   -0.8789 H       1  UNL1        0.0000
     44 H           4.6129   -1.5663   -0.8285 H       1  UNL1        0.0000
     45 H          -2.7664    2.9032    1.9651 H       1  UNL1        0.0000
@<TRIPOS>BOND
     1     1     2    1
     2     2     3    2
     3     3     4   ar
     4     4     5   ar
     5     5     6   ar
     6     6     7   ar
     7     7     8   ar
     8     8     9   ar
     9     9    10   ar
    10    10    11   ar
    11    11    12   ar
    12    12    13   ar
    13    13    14   ar
    14    14    15   ar
    15    15    16   ar
    16    16    17    2
    17    17    18    1
    18    18    19    1
    19    19    20    2
    20    12    21    1
    21    21    22   ar
    22    22    23   ar
    23    23    24   ar
    24    24    25   ar
    25    25    26   ar
    26     7    27   ar
    27    27    28    2
    28    28     1    1
    29    27     3   ar
    30    20     6   ar
    31    26    21   ar
    32    15     8   ar
    33    20    16   ar
    34    14    10   ar
    35     1    29    1
    36     1    30    1
    37     2    31    1
    38     4    32    1
    39     5    33    1
    40    11    34    1
    41    13    35    1
    42    17    36    1
    43    18    37    1
    44    18    38    1
    45    19    39    1
    46    22    40    1
    47    23    41    1
    48    24    42    1
    49    25    43    1
    50    26    44    1
    51    28    45    1
