@<TRIPOS>MOLECULE
*****
 40 46 0 0 0
SMALL
GASTEIGER

@<TRIPOS>ATOM
      1 C          -4.6715    2.6131    1.3962 C.3     1  UNL1       -0.0148
      2 C          -5.4162    1.4496    0.8263 C.2     1  UNL1       -0.0725
      3 C          -4.5348    0.5555    0.3615 C.ar    1  UNL1       -0.0212
      4 C          -4.8021   -0.7022   -0.2647 C.ar    1  UNL1       -0.0537
      5 C          -3.7500   -1.4394   -0.6541 C.ar    1  UNL1       -0.0528
      6 C          -2.3342   -1.0256   -0.4725 C.ar    1  UNL1       -0.0088
      7 C          -2.0164    0.1858    0.1297 C.ar    1  UNL1        0.0045
      8 C          -0.5851    0.4992    0.2610 C.ar    1  UNL1        0.0324
      9 S           0.0519    1.9537    0.9803 S.2     1  UNL1       -0.0843
     10 C           1.6807    1.4505    0.6979 C.ar    1  UNL1        0.0591
     11 C           3.0140    1.8837    0.8915 C.ar    1  UNL1       -0.0009
     12 C           3.7928    0.8670    0.3666 C.ar    1  UNL1        0.1448
     13 O           2.9979   -0.1421   -0.1261 O.2     1  UNL1       -0.4531
     14 C           1.7118    0.2476    0.0930 C.ar    1  UNL1        0.1510
     15 C           0.4598   -0.3205   -0.1697 C.ar    1  UNL1        0.0401
     16 C           0.1656   -1.5526   -0.7830 C.ar    1  UNL1       -0.0094
     17 C           0.9496   -2.5161   -1.2814 C.2     1  UNL1       -0.0718
     18 C           0.0883   -3.6170   -1.8183 C.3     1  UNL1       -0.0148
     19 C          -1.2988   -3.1080   -1.5373 C.2     1  UNL1       -0.0719
     20 C          -1.2397   -1.9059   -0.9346 C.ar    1  UNL1       -0.0133
     21 C           5.2285    0.8007    0.3074 C.ar    1  UNL1        0.0739
     22 C           6.1586    1.7216    0.7548 C.ar    1  UNL1        0.0454
     23 N           7.4879    1.3892    0.5634 N.ar    1  UNL1       -0.2550
     24 C           7.5532    0.2175   -0.0282 C.ar    1  UNL1        0.0653
     25 S           6.0572   -0.5383   -0.3821 S.2     1  UNL1       -0.0724
     26 C          -3.1610    1.0180    0.5683 C.ar    1  UNL1       -0.0130
     27 C          -3.2387    2.2184    1.1719 C.2     1  UNL1       -0.0719
     28 H          -4.8833    2.7353    2.4625 H       1  UNL1        0.0350
     29 H          -4.9127    3.5375    0.8634 H       1  UNL1        0.0350
     30 H          -6.4911    1.3612    0.8017 H       1  UNL1        0.0581
     31 H          -5.8223   -1.0348   -0.4127 H       1  UNL1        0.0624
     32 H          -3.9406   -2.3952   -1.1303 H       1  UNL1        0.0624
     33 H           3.3471    2.8038    1.3478 H       1  UNL1        0.0667
     34 H           2.0290   -2.5135   -1.2999 H       1  UNL1        0.0581
     35 H           0.2758   -4.5579   -1.2929 H       1  UNL1        0.0350
     36 H           0.2463   -3.7550   -2.8919 H       1  UNL1        0.0350
     37 H          -2.1877   -3.6600   -1.7981 H       1  UNL1        0.0581
     38 H           5.9272    2.6648    1.2343 H       1  UNL1        0.0842
     39 H           8.4959   -0.2501   -0.2807 H       1  UNL1        0.0907
     40 H          -2.4327    2.8607    1.4791 H       1  UNL1        0.0581
@<TRIPOS>BOND
     1     1     2    1
     2     2     3    2
     3     3     4   ar
     4     4     5   ar
     5     5     6   ar
     6     6     7   ar
     7     7     8   ar
     8     8     9   ar
     9     9    10   ar
    10    10    11   ar
    11    11    12   ar
    12    12    13   ar
    13    13    14   ar
    14    14    15   ar
    15    15    16   ar
    16    16    17    2
    17    17    18    1
    18    18    19    1
    19    19    20    2
    20    12    21    1
    21    21    22   ar
    22    22    23   ar
    23    23    24   ar
    24    24    25   ar
    25     7    26   ar
    26    26    27    2
    27    27     1    1
    28    26     3   ar
    29    20     6   ar
    30    25    21   ar
    31    15     8   ar
    32    20    16   ar
    33    14    10   ar
    34     1    28    1
    35     1    29    1
    36     2    30    1
    37     4    31    1
    38     5    32    1
    39    11    33    1
    40    17    34    1
    41    18    35    1
    42    18    36    1
    43    19    37    1
    44    22    38    1
    45    24    39    1
    46    27    40    1
