@<TRIPOS>MOLECULE
*****
 42 48 0 0 0
SMALL
GASTEIGER

@<TRIPOS>ATOM
      1 SI          2.3041   -2.1198    2.9690 Si      1  UNL1        0.0000
      2 C           3.3268   -1.2721    1.6790 C.2     1  UNL1        0.0000
      3 C           2.5628   -0.6515    0.7551 C.ar    1  UNL1        0.0000
      4 C           3.0997    0.1101   -0.3772 C.ar    1  UNL1        0.0000
      5 C           2.2312    0.7104   -1.2193 C.ar    1  UNL1        0.0000
      6 C           0.7655    0.6125   -1.0571 C.ar    1  UNL1        0.0000
      7 C          -0.0713    1.2496   -1.9677 C.ar    1  UNL1        0.0000
      8 N          -1.4180    1.2385   -1.9465 N.ar    1  UNL1        0.0000
      9 C          -1.9684    0.5222   -0.9373 C.ar    1  UNL1        0.0000
     10 C          -1.2190   -0.1602    0.0346 C.ar    1  UNL1        0.0000
     11 N          -2.1340   -0.7751    0.8728 N.ar    1  UNL1        0.0000
     12 C          -3.4354   -0.5120    0.4983 C.ar    1  UNL1        0.0000
     13 C          -4.6730   -0.9189    1.0535 C.ar    1  UNL1        0.0000
     14 C          -5.8882   -0.5058    0.4656 C.ar    1  UNL1        0.0000
     15 C          -5.7231    0.3016   -0.6612 C.ar    1  UNL1        0.0000
     16 C          -6.7911    0.8019   -1.3712 C.ar    1  UNL1        0.0000
     17 S          -6.2770    1.7657   -2.7142 S.2     1  UNL1        0.0000
     18 C          -4.6080    1.5203   -2.3552 C.ar    1  UNL1        0.0000
     19 C          -4.5104    0.7301   -1.2487 C.ar    1  UNL1        0.0000
     20 C          -3.3080    0.2892   -0.6201 C.ar    1  UNL1        0.0000
     21 C           0.1862   -0.1217    0.0021 C.ar    1  UNL1        0.0000
     22 C           1.0908   -0.7820    0.9722 C.ar    1  UNL1        0.0000
     23 C           0.7739   -1.4988    2.0718 C.2     1  UNL1        0.0000
     24 C           4.4915    0.2937   -0.6585 C.ar    1  UNL1        0.0000
     25 C           5.3245    1.3329   -0.2805 C.ar    1  UNL1        0.0000
     26 C           6.6606    1.1681   -0.7477 C.ar    1  UNL1        0.0000
     27 C           6.8126    0.0063   -1.4690 C.ar    1  UNL1        0.0000
     28 S           5.3539   -0.8780   -1.5794 S.2     1  UNL1        0.0000
     29 H           2.4037   -3.5978    2.9220 H       1  UNL1        0.0000
     30 H           2.4344   -1.5087    4.3131 H       1  UNL1        0.0000
     31 H           4.4048   -1.3034    1.7160 H       1  UNL1        0.0000
     32 H           2.5918    1.2883   -2.0669 H       1  UNL1        0.0000
     33 H           0.3442    1.8233   -2.7935 H       1  UNL1        0.0000
     34 H          -1.8981   -1.3557    1.6588 H       1  UNL1        0.0000
     35 H          -4.6964   -1.5528    1.9369 H       1  UNL1        0.0000
     36 H          -6.8488   -0.8018    0.8691 H       1  UNL1        0.0000
     37 H          -7.8486    0.6666   -1.1924 H       1  UNL1        0.0000
     38 H          -3.8307    1.9609   -2.9645 H       1  UNL1        0.0000
     39 H          -0.1790   -1.7483    2.4922 H       1  UNL1        0.0000
     40 H           4.9847    2.1757    0.3100 H       1  UNL1        0.0000
     41 H           7.4678    1.8662   -0.5629 H       1  UNL1        0.0000
     42 H           7.7112   -0.3697   -1.9383 H       1  UNL1        0.0000
@<TRIPOS>BOND
     1     1     2    1
     2     2     3    2
     3     3     4   ar
     4     4     5   ar
     5     5     6   ar
     6     6     7   ar
     7     7     8   ar
     8     8     9   ar
     9     9    10   ar
    10    10    11   ar
    11    11    12   ar
    12    12    13   ar
    13    13    14   ar
    14    14    15   ar
    15    15    16   ar
    16    16    17   ar
    17    17    18   ar
    18    18    19   ar
    19    19    20   ar
    20    10    21   ar
    21    21    22   ar
    22    22    23    2
    23     4    24    1
    24    24    25   ar
    25    25    26   ar
    26    26    27   ar
    27    27    28   ar
    28    23     1    1
    29    28    24   ar
    30    22     3   ar
    31    21     6   ar
    32    20     9   ar
    33    20    12   ar
    34    19    15   ar
    35     1    29    1
    36     1    30    1
    37     2    31    1
    38     5    32    1
    39     7    33    1
    40    11    34    1
    41    13    35    1
    42    14    36    1
    43    16    37    1
    44    18    38    1
    45    23    39    1
    46    25    40    1
    47    26    41    1
    48    27    42    1
