@<TRIPOS>MOLECULE
*****
 47 54 0 0 0
SMALL
GASTEIGER

@<TRIPOS>ATOM
      1 C          -4.3788    3.7034    1.4289 C.3     1  UNL1       -0.0148
      2 C          -5.5945    2.8691    1.1414 C.2     1  UNL1       -0.0725
      3 C          -5.2109    1.6598    0.7101 C.ar    1  UNL1       -0.0211
      4 C          -6.0353    0.5408    0.3190 C.ar    1  UNL1       -0.0537
      5 C          -5.4561   -0.6048   -0.0910 C.ar    1  UNL1       -0.0527
      6 C          -3.9872   -0.7241   -0.1432 C.ar    1  UNL1       -0.0046
      7 C          -3.3076   -1.8770   -0.5565 C.ar    1  UNL1        0.0079
      8 C          -3.8505   -3.0724   -0.9765 C.ar    1  UNL1        0.0100
      9 N          -2.8098   -3.9334   -1.2888 N.ar    1  UNL1       -0.3659
     10 C          -1.5934   -3.3143   -1.0776 C.ar    1  UNL1        0.0101
     11 C          -1.9127   -2.0674   -0.6334 C.ar    1  UNL1        0.0114
     12 C          -1.0792   -0.9809   -0.2539 C.ar    1  UNL1        0.0391
     13 C           0.3063   -0.8305   -0.2101 C.ar    1  UNL1        0.0467
     14 C           1.4486   -1.5734   -0.4813 C.ar    1  UNL1        0.0396
     15 N           2.6768   -1.0228   -0.2946 N.ar    1  UNL1       -0.2536
     16 C           2.8080    0.2555    0.1575 C.ar    1  UNL1        0.0816
     17 C           1.7158    1.0655    0.4521 C.ar    1  UNL1        0.0078
     18 C           0.4775    0.4716    0.2502 C.ar    1  UNL1        0.1398
     19 O          -0.7276    1.0821    0.4748 O.2     1  UNL1       -0.4540
     20 C          -1.7126    0.1777    0.1610 C.ar    1  UNL1        0.1452
     21 C          -3.1120    0.3487    0.2311 C.ar    1  UNL1        0.0331
     22 C          -3.7508    1.5924    0.6763 C.ar    1  UNL1       -0.0105
     23 C          -3.2525    2.7684    1.0898 C.2     1  UNL1       -0.0718
     24 C           4.2090    0.6995    0.3051 C.ar    1  UNL1        0.0450
     25 S           4.6055    2.3018    0.8722 S.2     1  UNL1       -0.0942
     26 C           6.3062    2.0502    0.7700 C.ar    1  UNL1       -0.0196
     27 C           6.5705    0.7892    0.3194 C.ar    1  UNL1       -0.0288
     28 C           7.7773   -0.0320    0.0183 C.3     1  UNL1       -0.0081
     29 C           7.1215   -1.3344   -0.4401 C.2     1  UNL1       -0.0791
     30 C           5.7728   -1.2453   -0.3983 C.2     1  UNL1       -0.0568
     31 C           5.3919    0.0445    0.0633 C.ar    1  UNL1       -0.0056
     32 H          -4.3543    4.5949    0.7954 H       1  UNL1        0.0350
     33 H          -4.3429    3.9971    2.4820 H       1  UNL1        0.0350
     34 H          -6.6107    3.2083    1.2684 H       1  UNL1        0.0581
     35 H          -7.1142    0.6403    0.3616 H       1  UNL1        0.0624
     36 H          -6.0632   -1.4514   -0.3869 H       1  UNL1        0.0624
     37 H          -4.8722   -3.4085   -1.0887 H       1  UNL1        0.0813
     38 H          -2.9276   -4.8811   -1.6240 H       1  UNL1        0.1648
     39 H          -0.6644   -3.8320   -1.2674 H       1  UNL1        0.0813
     40 H           1.4322   -2.5940   -0.8429 H       1  UNL1        0.0837
     41 H           1.7896    2.0808    0.8114 H       1  UNL1        0.0676
     42 H          -2.2090    3.0287    1.1751 H       1  UNL1        0.0581
     43 H           6.9978    2.8344    1.0438 H       1  UNL1        0.0696
     44 H           8.3773    0.4054   -0.7844 H       1  UNL1        0.0356
     45 H           8.3899   -0.1969    0.9089 H       1  UNL1        0.0356
     46 H           7.6766   -2.2055   -0.7541 H       1  UNL1        0.0575
     47 H           5.0787   -2.0279   -0.6715 H       1  UNL1        0.0621
@<TRIPOS>BOND
     1     1     2    1
     2     2     3    2
     3     3     4   ar
     4     4     5   ar
     5     5     6   ar
     6     6     7   ar
     7     7     8   ar
     8     8     9   ar
     9     9    10   ar
    10    10    11   ar
    11    11    12   ar
    12    12    13   ar
    13    13    14   ar
    14    14    15   ar
    15    15    16   ar
    16    16    17   ar
    17    17    18   ar
    18    18    19   ar
    19    19    20   ar
    20    20    21   ar
    21    21    22   ar
    22    22    23    2
    23    16    24    1
    24    24    25   ar
    25    25    26   ar
    26    26    27   ar
    27    27    28    1
    28    28    29    1
    29    29    30    2
    30    30    31    1
    31    23     1    1
    32    31    24   ar
    33    22     3   ar
    34    31    27   ar
    35    21     6   ar
    36    11     7   ar
    37    20    12   ar
    38    18    13   ar
    39     1    32    1
    40     1    33    1
    41     2    34    1
    42     4    35    1
    43     5    36    1
    44     8    37    1
    45     9    38    1
    46    10    39    1
    47    14    40    1
    48    17    41    1
    49    23    42    1
    50    26    43    1
    51    28    44    1
    52    28    45    1
    53    29    46    1
    54    30    47    1
