@<TRIPOS>MOLECULE
*****
 41 46 0 0 0
SMALL
GASTEIGER

@<TRIPOS>ATOM
      1 C          -3.8584    3.1213   -1.1941 C.3     1  UNL1        0.0000
      2 C          -4.8338    1.9951   -1.0850 C.2     1  UNL1        0.0000
      3 C          -4.1811    0.8801   -0.7306 C.ar    1  UNL1        0.0000
      4 C          -4.7639   -0.3929   -0.4088 C.ar    1  UNL1        0.0000
      5 C          -3.9733   -1.3702    0.0614 C.ar    1  UNL1        0.0000
      6 C          -2.5220   -1.1637    0.1871 C.ar    1  UNL1        0.0000
      7 C          -1.6685   -2.1484    0.6910 C.ar    1  UNL1        0.0000
      8 C          -2.0044   -3.3832    1.1955 C.ar    1  UNL1        0.0000
      9 N          -0.8364   -4.0040    1.5790 N.ar    1  UNL1        0.0000
     10 C           0.2403   -3.1862    1.3185 C.ar    1  UNL1        0.0000
     11 C          -0.2510   -2.0254    0.7682 C.ar    1  UNL1        0.0000
     12 C           0.4922   -0.9114    0.3160 C.ar    1  UNL1        0.0000
     13 C           1.9021   -0.8184    0.3552 C.ar    1  UNL1        0.0000
     14 C           2.5114    0.3043   -0.1773 C.ar    1  UNL1        0.0000
     15 N           1.7871    1.2909   -0.7399 N.ar    1  UNL1        0.0000
     16 C           0.4276    1.1675   -0.7597 C.ar    1  UNL1        0.0000
     17 C          -0.3368    0.1229   -0.2211 C.ar    1  UNL1        0.0000
     18 C          -1.8121    0.0315   -0.2213 C.ar    1  UNL1        0.0000
     19 C          -2.7395    1.1394   -0.6231 C.ar    1  UNL1        0.0000
     20 C          -2.5583    2.4561   -0.8378 C.2     1  UNL1        0.0000
     21 C           3.9638    0.4723   -0.1695 C.2     1  UNL1        0.0000
     22 C           4.9272   -0.4730   -0.0807 C.2     1  UNL1        0.0000
     23 C           6.2985    0.0139   -0.0964 C.2     1  UNL1        0.0000
     24 C           6.4322    1.3471   -0.2037 C.2     1  UNL1        0.0000
     25 SI          4.7473    2.1925   -0.3089 Si      1  UNL1        0.0000
     26 H          -3.8293    3.5283   -2.2089 H       1  UNL1        0.0000
     27 H          -4.0973    3.9180   -0.4834 H       1  UNL1        0.0000
     28 H          -5.9002    2.0963   -1.2149 H       1  UNL1        0.0000
     29 H          -5.8334   -0.5351   -0.5139 H       1  UNL1        0.0000
     30 H          -4.3970   -2.3301    0.3292 H       1  UNL1        0.0000
     31 H          -2.9520   -3.8861    1.3288 H       1  UNL1        0.0000
     32 H          -0.7781   -4.9281    1.9878 H       1  UNL1        0.0000
     33 H           1.2423   -3.5201    1.5491 H       1  UNL1        0.0000
     34 H           2.4912   -1.6137    0.7944 H       1  UNL1        0.0000
     35 H          -0.0318    1.9798   -1.3072 H       1  UNL1        0.0000
     36 H          -1.6533    3.0306   -0.7473 H       1  UNL1        0.0000
     37 H           4.7410   -1.5374   -0.0106 H       1  UNL1        0.0000
     38 H           7.1342   -0.6715   -0.0269 H       1  UNL1        0.0000
     39 H           7.3489    1.9137   -0.2359 H       1  UNL1        0.0000
     40 H           4.5306    3.0498    0.8856 H       1  UNL1        0.0000
     41 H           4.5940    2.8474   -1.6338 H       1  UNL1        0.0000
@<TRIPOS>BOND
     1     1     2    1
     2     2     3    2
     3     3     4   ar
     4     4     5   ar
     5     5     6   ar
     6     6     7   ar
     7     7     8   ar
     8     8     9   ar
     9     9    10   ar
    10    10    11   ar
    11    11    12   ar
    12    12    13   ar
    13    13    14   ar
    14    14    15   ar
    15    15    16   ar
    16    16    17   ar
    17    17    18   ar
    18    18    19   ar
    19    19    20    2
    20    14    21    1
    21    21    22    2
    22    22    23    1
    23    23    24    2
    24    24    25    1
    25    20     1    1
    26    25    21    1
    27    19     3   ar
    28    18     6   ar
    29    11     7   ar
    30    17    12   ar
    31     1    26    1
    32     1    27    1
    33     2    28    1
    34     4    29    1
    35     5    30    1
    36     8    31    1
    37     9    32    1
    38    10    33    1
    39    13    34    1
    40    16    35    1
    41    20    36    1
    42    22    37    1
    43    23    38    1
    44    24    39    1
    45    25    40    1
    46    25    41    1
