@<TRIPOS>MOLECULE
*****
 50 57 0 0 0
SMALL
GASTEIGER

@<TRIPOS>ATOM
      1 C          -4.0322   -2.8924   -2.0602 C.3     1  UNL1        0.0000
      2 C          -5.2270   -2.3798   -1.3234 C.2     1  UNL1        0.0000
      3 C          -4.8610   -1.3406   -0.5609 C.ar    1  UNL1        0.0000
      4 C          -5.7266   -0.4828    0.1997 C.ar    1  UNL1        0.0000
      5 C          -5.2099    0.6124    0.7786 C.ar    1  UNL1        0.0000
      6 C          -3.7678    0.8943    0.6962 C.ar    1  UNL1        0.0000
      7 C          -3.1975    2.0402    1.2537 C.ar    1  UNL1        0.0000
      8 C          -3.8383    3.0884    1.8727 C.ar    1  UNL1        0.0000
      9 N          -2.8737    3.9950    2.2513 N.ar    1  UNL1        0.0000
     10 C          -1.6271    3.5356    1.8898 C.ar    1  UNL1        0.0000
     11 C          -1.8014    2.3220    1.2656 C.ar    1  UNL1        0.0000
     12 C          -0.7966    1.4667    0.7570 C.ar    1  UNL1        0.0000
     13 C           0.5895    1.7492    0.8225 C.ar    1  UNL1        0.0000
     14 C           1.5188    0.8184    0.3626 C.ar    1  UNL1        0.0000
     15 C           2.9625    1.1385    0.4371 C.ar    1  UNL1        0.0000
     16 C           3.9295    0.2832    0.0324 C.ar    1  UNL1        0.0000
     17 C           5.2923    0.7147    0.1633 C.ar    1  UNL1        0.0000
     18 N           6.1967    0.2175    0.9892 N.ar    1  UNL1        0.0000
     19 C           7.4073    0.8598    0.8300 C.ar    1  UNL1        0.0000
     20 C           7.4366    1.8441   -0.1300 C.ar    1  UNL1        0.0000
     21 S           5.8987    1.9780   -0.8673 S.2     1  UNL1        0.0000
     22 C           3.5204   -1.0298   -0.4748 C.ar    1  UNL1        0.0000
     23 C           4.3659   -1.9959   -0.8926 C.2     1  UNL1        0.0000
     24 SI          3.4535   -3.5153   -1.4590 Si      1  UNL1        0.0000
     25 C           1.8542   -2.6334   -1.0545 C.2     1  UNL1        0.0000
     26 C           2.0844   -1.3949   -0.5686 C.ar    1  UNL1        0.0000
     27 C           1.0596   -0.4146   -0.1383 C.ar    1  UNL1        0.0000
     28 C          -0.3273   -0.6711   -0.1999 C.ar    1  UNL1        0.0000
     29 C          -1.3248    0.2574    0.1898 C.ar    1  UNL1        0.0000
     30 C          -2.7816    0.0251    0.0855 C.ar    1  UNL1        0.0000
     31 C          -3.4155   -1.1073   -0.6688 C.ar    1  UNL1        0.0000
     32 C          -2.9443   -1.9691   -1.5900 C.2     1  UNL1        0.0000
     33 H          -4.1736   -2.8095   -3.1420 H       1  UNL1        0.0000
     34 H          -3.8129   -3.9305   -1.7948 H       1  UNL1        0.0000
     35 H          -6.2306   -2.7543   -1.4523 H       1  UNL1        0.0000
     36 H          -6.7854   -0.7065    0.2609 H       1  UNL1        0.0000
     37 H          -5.8489    1.2844    1.3376 H       1  UNL1        0.0000
     38 H          -4.8802    3.2899    2.0788 H       1  UNL1        0.0000
     39 H          -3.0540    4.8675    2.7310 H       1  UNL1        0.0000
     40 H          -0.7474    4.1194    2.1214 H       1  UNL1        0.0000
     41 H           0.9294    2.6902    1.2448 H       1  UNL1        0.0000
     42 H           3.2187    2.1128    0.8461 H       1  UNL1        0.0000
     43 H           8.2469    0.5640    1.4472 H       1  UNL1        0.0000
     44 H           8.2649    2.4703   -0.4273 H       1  UNL1        0.0000
     45 H           5.4444   -1.9562   -0.9063 H       1  UNL1        0.0000
     46 H           3.6008   -3.7618   -2.9137 H       1  UNL1        0.0000
     47 H           3.6839   -4.6909   -0.5855 H       1  UNL1        0.0000
     48 H           0.9106   -3.1272   -1.2144 H       1  UNL1        0.0000
     49 H          -0.6306   -1.6606   -0.5130 H       1  UNL1        0.0000
     50 H          -1.9534   -2.0144   -2.0076 H       1  UNL1        0.0000
@<TRIPOS>BOND
     1     1     2    1
     2     2     3    2
     3     3     4   ar
     4     4     5   ar
     5     5     6   ar
     6     6     7   ar
     7     7     8   ar
     8     8     9   ar
     9     9    10   ar
    10    10    11   ar
    11    11    12   ar
    12    12    13   ar
    13    13    14   ar
    14    14    15   ar
    15    15    16   ar
    16    16    17    1
    17    17    18   ar
    18    18    19   ar
    19    19    20   ar
    20    20    21   ar
    21    16    22   ar
    22    22    23    2
    23    23    24    1
    24    24    25    1
    25    25    26    2
    26    26    27   ar
    27    27    28   ar
    28    28    29   ar
    29    29    30   ar
    30    30    31   ar
    31    31    32    2
    32    32     1    1
    33    31     3   ar
    34    30     6   ar
    35    11     7   ar
    36    29    12   ar
    37    27    14   ar
    38    21    17   ar
    39    26    22   ar
    40     1    33    1
    41     1    34    1
    42     2    35    1
    43     4    36    1
    44     5    37    1
    45     8    38    1
    46     9    39    1
    47    10    40    1
    48    13    41    1
    49    15    42    1
    50    19    43    1
    51    20    44    1
    52    23    45    1
    53    24    46    1
    54    24    47    1
    55    25    48    1
    56    28    49    1
    57    32    50    1
