@<TRIPOS>MOLECULE
*****
 46 52 0 0 0
SMALL
GASTEIGER

@<TRIPOS>ATOM
      1 C           5.0492    0.5073   -2.6540 C.3     1  UNL1        0.0000
      2 C           5.8266    0.3807   -1.3752 C.2     1  UNL1        0.0000
      3 C           4.9750    0.2563   -0.3481 C.ar    1  UNL1        0.0000
      4 C           5.2756    0.1082    1.0547 C.ar    1  UNL1        0.0000
      5 C           4.2673   -0.0043    1.9403 C.ar    1  UNL1        0.0000
      6 C           2.8708    0.0240    1.4796 C.ar    1  UNL1        0.0000
      7 C           1.7620   -0.0876    2.3203 C.ar    1  UNL1        0.0000
      8 C           1.7206   -0.2399    3.6823 C.ar    1  UNL1        0.0000
      9 O           0.4201   -0.3068    4.1023 O.2     1  UNL1        0.0000
     10 C          -0.3771   -0.1956    2.9968 C.ar    1  UNL1        0.0000
     11 C           0.4025   -0.0606    1.8769 C.ar    1  UNL1        0.0000
     12 C          -0.0043    0.0826    0.5475 C.ar    1  UNL1        0.0000
     13 C           1.1030    0.1954   -0.3312 C.ar    1  UNL1        0.0000
     14 C           2.4760    0.1693    0.1028 C.ar    1  UNL1        0.0000
     15 C           3.6016    0.2894   -0.8450 C.ar    1  UNL1        0.0000
     16 C           3.6242    0.4344   -2.1799 C.2     1  UNL1        0.0000
     17 C          -1.4059    0.0947    0.1371 C.ar    1  UNL1        0.0000
     18 C          -1.9596    1.2953   -0.1619 C.ar    1  UNL1        0.0000
     19 C          -3.3442    1.4050   -0.5796 C.ar    1  UNL1        0.0000
     20 C          -4.0592    2.6766   -0.9223 C.3     1  UNL1        0.0000
     21 C          -5.4324    2.1663   -1.2688 C.2     1  UNL1        0.0000
     22 C          -5.4707    0.8305   -1.1388 C.2     1  UNL1        0.0000
     23 C          -4.1776    0.3502   -0.7108 C.ar    1  UNL1        0.0000
     24 C          -3.6670   -0.9725   -0.4220 C.ar    1  UNL1        0.0000
     25 C          -4.3507   -2.1298   -0.5060 C.2     1  UNL1        0.0000
     26 SI         -3.2628   -3.5778   -0.0434 Si      1  UNL1        0.0000
     27 C          -1.8592   -2.3774    0.2459 C.2     1  UNL1        0.0000
     28 C          -2.2466   -1.1074    0.0091 C.ar    1  UNL1        0.0000
     29 H           5.2518    1.4636   -3.1451 H       1  UNL1        0.0000
     30 H           5.2787   -0.3153   -3.3377 H       1  UNL1        0.0000
     31 H           6.9037    0.3900   -1.3129 H       1  UNL1        0.0000
     32 H           6.3111    0.0894    1.3755 H       1  UNL1        0.0000
     33 H           4.4742   -0.1164    2.9978 H       1  UNL1        0.0000
     34 H           2.4602   -0.3152    4.4664 H       1  UNL1        0.0000
     35 H          -1.4415   -0.2324    3.1834 H       1  UNL1        0.0000
     36 H           0.8918    0.3018   -1.3947 H       1  UNL1        0.0000
     37 H           2.7715    0.4920   -2.8377 H       1  UNL1        0.0000
     38 H          -1.3897    2.2175   -0.0903 H       1  UNL1        0.0000
     39 H          -4.1010    3.3597   -0.0683 H       1  UNL1        0.0000
     40 H          -3.6019    3.1791   -1.7800 H       1  UNL1        0.0000
     41 H          -6.2570    2.7918   -1.5751 H       1  UNL1        0.0000
     42 H          -6.3241    0.1962   -1.3204 H       1  UNL1        0.0000
     43 H          -5.3797   -2.2648   -0.7965 H       1  UNL1        0.0000
     44 H          -3.0096   -4.4820   -1.1911 H       1  UNL1        0.0000
     45 H          -3.7090   -4.2410    1.2056 H       1  UNL1        0.0000
     46 H          -0.8868   -2.7204    0.5619 H       1  UNL1        0.0000
@<TRIPOS>BOND
     1     1     2    1
     2     2     3    2
     3     3     4   ar
     4     4     5   ar
     5     5     6   ar
     6     6     7   ar
     7     7     8   ar
     8     8     9   ar
     9     9    10   ar
    10    10    11   ar
    11    11    12   ar
    12    12    13   ar
    13    13    14   ar
    14    14    15   ar
    15    15    16    2
    16    12    17    1
    17    17    18   ar
    18    18    19   ar
    19    19    20    1
    20    20    21    1
    21    21    22    2
    22    22    23    1
    23    23    24   ar
    24    24    25    2
    25    25    26    1
    26    26    27    1
    27    27    28    2
    28    16     1    1
    29    28    17   ar
    30    15     3   ar
    31    23    19   ar
    32    28    24   ar
    33    14     6   ar
    34    11     7   ar
    35     1    29    1
    36     1    30    1
    37     2    31    1
    38     4    32    1
    39     5    33    1
    40     8    34    1
    41    10    35    1
    42    13    36    1
    43    16    37    1
    44    18    38    1
    45    20    39    1
    46    20    40    1
    47    21    41    1
    48    22    42    1
    49    25    43    1
    50    26    44    1
    51    26    45    1
    52    27    46    1
