@<TRIPOS>MOLECULE
*****
 45 52 0 0 0
SMALL
GASTEIGER

@<TRIPOS>ATOM
      1 C          -4.5205   -3.3322   -1.1264 C.3     1  UNL1       -0.0148
      2 C          -5.6762   -2.4221   -0.8214 C.2     1  UNL1       -0.0725
      3 C          -5.2101   -1.2323   -0.4179 C.ar    1  UNL1       -0.0211
      4 C          -5.9564   -0.0607   -0.0235 C.ar    1  UNL1       -0.0537
      5 C          -5.3007    1.0542    0.3551 C.ar    1  UNL1       -0.0527
      6 C          -3.8272    1.0835    0.3686 C.ar    1  UNL1       -0.0030
      7 C          -3.0674    2.1945    0.7461 C.ar    1  UNL1        0.0284
      8 C          -3.5078    3.4302    1.1630 C.ar    1  UNL1        0.1000
      9 O          -2.4417    4.2514    1.4433 O.2     1  UNL1       -0.4698
     10 C          -1.2924    3.5392    1.2053 C.ar    1  UNL1        0.1001
     11 C          -1.6636    2.3020    0.7859 C.ar    1  UNL1        0.0318
     12 C          -0.9032    1.1674    0.4041 C.ar    1  UNL1        0.0407
     13 C           0.4692    0.9358    0.3292 C.ar    1  UNL1        0.0467
     14 C           1.6598    1.6143    0.5617 C.ar    1  UNL1        0.0396
     15 N           2.8469    0.9888    0.3533 N.ar    1  UNL1       -0.2536
     16 C           2.8894   -0.3010   -0.0826 C.ar    1  UNL1        0.0817
     17 C           1.7465   -1.0504   -0.3391 C.ar    1  UNL1        0.0078
     18 C           0.5513   -0.3809   -0.1158 C.ar    1  UNL1        0.1398
     19 O          -0.6936   -0.9216   -0.3018 O.2     1  UNL1       -0.4540
     20 C          -1.6152    0.0433    0.0222 C.ar    1  UNL1        0.1452
     21 C          -3.0250   -0.0441   -0.0108 C.ar    1  UNL1        0.0331
     22 C          -3.7481   -1.2527   -0.4213 C.ar    1  UNL1       -0.0105
     23 C          -3.3318   -2.4620   -0.8293 C.2     1  UNL1       -0.0718
     24 C           4.2529   -0.8237   -0.2556 C.ar    1  UNL1        0.0468
     25 S           4.5757   -2.4568   -0.8042 S.2     1  UNL1       -0.0924
     26 C           6.2986   -2.2815   -0.7416 C.ar    1  UNL1        0.0002
     27 C           6.5673   -1.0315   -0.3206 C.ar    1  UNL1        0.0542
     28 N           7.8009   -0.4798   -0.1324 N.ar    1  UNL1       -0.3602
     29 C           7.4617    0.8009    0.2976 C.ar    1  UNL1        0.0028
     30 C           6.0623    0.9745    0.3530 C.ar    1  UNL1       -0.0355
     31 C           5.4659   -0.2483   -0.0596 C.ar    1  UNL1        0.0159
     32 H          -4.5332   -4.2149   -0.4805 H       1  UNL1        0.0350
     33 H          -4.5292   -3.6416   -2.1757 H       1  UNL1        0.0350
     34 H          -6.7138   -2.7016   -0.9184 H       1  UNL1        0.0581
     35 H          -7.0402   -0.0972   -0.0384 H       1  UNL1        0.0624
     36 H          -5.8519    1.9382    0.6528 H       1  UNL1        0.0624
     37 H          -4.4781    3.8823    1.3135 H       1  UNL1        0.1036
     38 H          -0.3672    4.0662    1.3857 H       1  UNL1        0.1036
     39 H           1.7157    2.6390    0.9083 H       1  UNL1        0.0837
     40 H           1.7542   -2.0731   -0.6849 H       1  UNL1        0.0676
     41 H          -2.3086   -2.7867   -0.9367 H       1  UNL1        0.0581
     42 H           6.9765   -3.0797   -1.0085 H       1  UNL1        0.0714
     43 H           8.7062   -0.9098   -0.2751 H       1  UNL1        0.1653
     44 H           8.2515    1.5019    0.5350 H       1  UNL1        0.0807
     45 H           5.5508    1.8789    0.6561 H       1  UNL1        0.0639
@<TRIPOS>BOND
     1     1     2    1
     2     2     3    2
     3     3     4   ar
     4     4     5   ar
     5     5     6   ar
     6     6     7   ar
     7     7     8   ar
     8     8     9   ar
     9     9    10   ar
    10    10    11   ar
    11    11    12   ar
    12    12    13   ar
    13    13    14   ar
    14    14    15   ar
    15    15    16   ar
    16    16    17   ar
    17    17    18   ar
    18    18    19   ar
    19    19    20   ar
    20    20    21   ar
    21    21    22   ar
    22    22    23    2
    23    16    24    1
    24    24    25   ar
    25    25    26   ar
    26    26    27   ar
    27    27    28   ar
    28    28    29   ar
    29    29    30   ar
    30    30    31   ar
    31    23     1    1
    32    31    24   ar
    33    22     3   ar
    34    31    27   ar
    35    21     6   ar
    36    11     7   ar
    37    20    12   ar
    38    18    13   ar
    39     1    32    1
    40     1    33    1
    41     2    34    1
    42     4    35    1
    43     5    36    1
    44     8    37    1
    45    10    38    1
    46    14    39    1
    47    17    40    1
    48    23    41    1
    49    26    42    1
    50    28    43    1
    51    29    44    1
    52    30    45    1
