@<TRIPOS>MOLECULE
*****
 40 46 0 0 0
SMALL
GASTEIGER

@<TRIPOS>ATOM
      1 C          -4.7455    2.5946   -0.4124 C.3     1  UNL1       -0.0148
      2 C          -5.5461    1.3424   -0.2428 C.2     1  UNL1       -0.0725
      3 C          -4.7145    0.3014   -0.1027 C.ar    1  UNL1       -0.0212
      4 C          -5.0712   -1.0809    0.0841 C.ar    1  UNL1       -0.0537
      5 C          -4.1014   -2.0032    0.2079 C.ar    1  UNL1       -0.0527
      6 C          -2.6847   -1.6072    0.1536 C.ar    1  UNL1       -0.0055
      7 C          -1.6381   -2.5156    0.2756 C.ar    1  UNL1        0.0283
      8 C          -1.7110   -3.8788    0.4597 C.ar    1  UNL1        0.1000
      9 O          -0.4528   -4.4233    0.5324 O.2     1  UNL1       -0.4698
     10 C           0.4452   -3.3970    0.3932 C.ar    1  UNL1        0.1001
     11 C          -0.2655   -2.2474    0.2387 C.ar    1  UNL1        0.0307
     12 C           0.1659   -0.8962    0.0561 C.ar    1  UNL1        0.0265
     13 C           1.5124   -0.4746   -0.0013 C.ar    1  UNL1        0.0864
     14 N           2.6372   -1.2362    0.1034 N.ar    1  UNL1       -0.2532
     15 C           3.8084   -0.5688    0.0108 C.ar    1  UNL1        0.0366
     16 C           3.9624    0.8013   -0.1772 C.ar    1  UNL1        0.0094
     17 C           2.7968    1.5654   -0.2782 C.ar    1  UNL1       -0.0362
     18 C           1.5595    0.9036   -0.1886 C.ar    1  UNL1        0.0394
     19 S          -0.0124    1.5874   -0.2781 S.2     1  UNL1       -0.0860
     20 C          -0.8317    0.0718   -0.0740 C.ar    1  UNL1        0.0310
     21 C          -2.2345   -0.2516   -0.0296 C.ar    1  UNL1        0.0046
     22 C          -3.3190    0.7540   -0.1647 C.ar    1  UNL1       -0.0130
     23 C          -3.3327    2.0868   -0.3447 C.2     1  UNL1       -0.0719
     24 C           5.2970    1.4003   -0.2461 C.ar    1  UNL1        0.0403
     25 C           6.4430    1.0963    0.4707 C.ar    1  UNL1        0.0425
     26 N           7.5719    1.8299    0.1603 N.ar    1  UNL1       -0.2551
     27 C           7.2793    2.6865   -0.7914 C.ar    1  UNL1        0.0652
     28 S           5.6642    2.6616   -1.3602 S.2     1  UNL1       -0.0754
     29 H          -4.9469    3.3053    0.3945 H       1  UNL1        0.0350
     30 H          -4.9481    3.0659   -1.3786 H       1  UNL1        0.0350
     31 H          -6.6244    1.3033   -0.2368 H       1  UNL1        0.0581
     32 H          -6.1188   -1.3586    0.1222 H       1  UNL1        0.0624
     33 H          -4.3592   -3.0460    0.3488 H       1  UNL1        0.0624
     34 H          -2.5163   -4.5930    0.5565 H       1  UNL1        0.1036
     35 H           1.4904   -3.6693    0.4291 H       1  UNL1        0.1036
     36 H           4.6791   -1.2183    0.0881 H       1  UNL1        0.0836
     37 H           2.8277    2.6427   -0.4101 H       1  UNL1        0.0636
     38 H          -2.4920    2.7520   -0.4352 H       1  UNL1        0.0581
     39 H           6.5136    0.3426    1.2466 H       1  UNL1        0.0841
     40 H           8.0128    3.3709   -1.1979 H       1  UNL1        0.0907
@<TRIPOS>BOND
     1     1     2    1
     2     2     3    2
     3     3     4   ar
     4     4     5   ar
     5     5     6   ar
     6     6     7   ar
     7     7     8   ar
     8     8     9   ar
     9     9    10   ar
    10    10    11   ar
    11    11    12   ar
    12    12    13   ar
    13    13    14   ar
    14    14    15   ar
    15    15    16   ar
    16    16    17   ar
    17    17    18   ar
    18    18    19   ar
    19    19    20   ar
    20    20    21   ar
    21    21    22   ar
    22    22    23    2
    23    16    24    1
    24    24    25   ar
    25    25    26   ar
    26    26    27   ar
    27    27    28   ar
    28    23     1    1
    29    28    24   ar
    30    22     3   ar
    31    21     6   ar
    32    11     7   ar
    33    20    12   ar
    34    18    13   ar
    35     1    29    1
    36     1    30    1
    37     2    31    1
    38     4    32    1
    39     5    33    1
    40     8    34    1
    41    10    35    1
    42    15    36    1
    43    17    37    1
    44    23    38    1
    45    25    39    1
    46    27    40    1
