@<TRIPOS>MOLECULE
*****
 40 46 0 0 0
SMALL
GASTEIGER

@<TRIPOS>ATOM
      1 C          -5.0737    2.0656    0.9572 C.3     1  UNL1       -0.0148
      2 C          -5.6622    0.8825    0.2511 C.2     1  UNL1       -0.0725
      3 C          -4.6738    0.0851   -0.1770 C.ar    1  UNL1       -0.0211
      4 C          -4.7960   -1.1528   -0.8988 C.ar    1  UNL1       -0.0537
      5 C          -3.6845   -1.8218   -1.2481 C.ar    1  UNL1       -0.0527
      6 C          -2.3573   -1.2946   -0.8967 C.ar    1  UNL1       -0.0045
      7 C          -1.1721   -1.9453   -1.2329 C.ar    1  UNL1        0.0284
      8 C          -0.9909   -3.1242   -1.9098 C.ar    1  UNL1        0.1000
      9 O           0.3451   -3.3928   -2.0195 O.2     1  UNL1       -0.4698
     10 C           1.0197   -2.3743   -1.4060 C.ar    1  UNL1        0.1002
     11 C           0.1249   -1.4623   -0.9083 C.ar    1  UNL1        0.0332
     12 C           0.3689   -0.2772   -0.2131 C.ar    1  UNL1        0.0545
     13 C           1.6097    0.2422    0.1306 C.ar    1  UNL1        0.1471
     14 O           2.8338   -0.2924   -0.1374 O.2     1  UNL1       -0.4520
     15 C           3.7900    0.5465    0.3815 C.ar    1  UNL1        0.1612
     16 C           3.1510    1.6207    0.9823 C.ar    1  UNL1       -0.0045
     17 C           1.7555    1.4300    0.8240 C.ar    1  UNL1        0.0396
     18 C           0.6007    2.1142    1.1809 C.ar    1  UNL1        0.0391
     19 N          -0.6229    1.6152    0.8497 N.ar    1  UNL1       -0.2535
     20 C          -0.7948    0.4534    0.1704 C.ar    1  UNL1        0.0835
     21 C          -2.1124   -0.0584   -0.1717 C.ar    1  UNL1        0.0163
     22 C          -3.3752    0.6506    0.1957 C.ar    1  UNL1       -0.0120
     23 C          -3.6003    1.8010    0.8548 C.2     1  UNL1       -0.0719
     24 C           5.2033    0.3021    0.2881 C.ar    1  UNL1        0.1433
     25 N           6.0972    1.1272    0.7969 N.ar    1  UNL1       -0.2442
     26 C           7.3677    0.6398    0.5576 C.ar    1  UNL1        0.0356
     27 C           7.4285   -0.5517   -0.1311 C.ar    1  UNL1       -0.0041
     28 S           5.8419   -1.0877   -0.4959 S.2     1  UNL1       -0.0727
     29 H          -5.3423    2.9993    0.4547 H       1  UNL1        0.0350
     30 H          -5.3957    2.1024    2.0020 H       1  UNL1        0.0350
     31 H          -6.7199    0.7162    0.1181 H       1  UNL1        0.0581
     32 H          -5.7821   -1.5274   -1.1500 H       1  UNL1        0.0624
     33 H          -3.7606   -2.7557   -1.7920 H       1  UNL1        0.0624
     34 H          -1.6443   -3.8590   -2.3582 H       1  UNL1        0.1036
     35 H           2.0975   -2.4607   -1.4189 H       1  UNL1        0.1036
     36 H           3.6514    2.4432    1.4762 H       1  UNL1        0.0663
     37 H           0.6043    3.0522    1.7247 H       1  UNL1        0.0837
     38 H          -2.8560    2.4647    1.2653 H       1  UNL1        0.0581
     39 H           8.2251    1.1998    0.9115 H       1  UNL1        0.0835
     40 H           8.3008   -1.1156   -0.4284 H       1  UNL1        0.0709
@<TRIPOS>BOND
     1     1     2    1
     2     2     3    2
     3     3     4   ar
     4     4     5   ar
     5     5     6   ar
     6     6     7   ar
     7     7     8   ar
     8     8     9   ar
     9     9    10   ar
    10    10    11   ar
    11    11    12   ar
    12    12    13   ar
    13    13    14   ar
    14    14    15   ar
    15    15    16   ar
    16    16    17   ar
    17    17    18   ar
    18    18    19   ar
    19    19    20   ar
    20    20    21   ar
    21    21    22   ar
    22    22    23    2
    23    15    24    1
    24    24    25   ar
    25    25    26   ar
    26    26    27   ar
    27    27    28   ar
    28    23     1    1
    29    28    24   ar
    30    22     3   ar
    31    21     6   ar
    32    11     7   ar
    33    20    12   ar
    34    17    13   ar
    35     1    29    1
    36     1    30    1
    37     2    31    1
    38     4    32    1
    39     5    33    1
    40     8    34    1
    41    10    35    1
    42    16    36    1
    43    18    37    1
    44    23    38    1
    45    26    39    1
    46    27    40    1
