@<TRIPOS>MOLECULE
*****
 46 53 0 0 0
SMALL
GASTEIGER

@<TRIPOS>ATOM
      1 C          -4.6297    0.6232    3.1815 C.3     1  UNL1       -0.0148
      2 C          -5.6100    0.4959    2.0593 C.2     1  UNL1       -0.0725
      3 C          -4.9413    0.3250    0.9109 C.ar    1  UNL1       -0.0212
      4 C          -5.4911    0.3223   -0.4163 C.ar    1  UNL1       -0.0537
      5 C          -4.6512    0.3446   -1.4635 C.ar    1  UNL1       -0.0527
      6 C          -3.1957    0.2856   -1.2529 C.ar    1  UNL1       -0.0059
      7 C          -2.2844    0.3741   -2.3021 C.ar    1  UNL1        0.0282
      8 C          -2.5393    0.6102   -3.6300 C.ar    1  UNL1        0.1000
      9 O          -1.3680    0.6388   -4.3292 O.2     1  UNL1       -0.4698
     10 C          -0.3580    0.4141   -3.4393 C.ar    1  UNL1        0.1000
     11 C          -0.8719    0.2456   -2.1758 C.ar    1  UNL1        0.0282
     12 C          -0.1735   -0.0482   -0.9841 C.ar    1  UNL1       -0.0038
     13 C           1.2482   -0.2055   -0.9577 C.ar    1  UNL1       -0.0434
     14 C           1.9633   -0.5836    0.1875 C.ar    1  UNL1        0.0116
     15 C           3.4074   -0.7347    0.2034 C.ar    1  UNL1       -0.0050
     16 C           4.1074   -1.9281    0.5376 C.ar    1  UNL1       -0.0533
     17 C           5.5430   -2.0715    0.5259 C.ar    1  UNL1       -0.0605
     18 C           6.4432   -1.0393    0.1795 C.ar    1  UNL1       -0.0510
     19 C           5.7439    0.1160   -0.1365 C.ar    1  UNL1        0.0204
     20 C           6.2768    1.3215   -0.5056 C.ar    1  UNL1        0.0994
     21 O           5.2665    2.2190   -0.7191 O.2     1  UNL1       -0.4698
     22 C           4.0831    1.5742   -0.4786 C.ar    1  UNL1        0.1000
     23 C           4.3247    0.2691   -0.1291 C.ar    1  UNL1        0.0276
     24 C           1.1560   -0.8762    1.3192 C.ar    1  UNL1        0.1082
     25 N           1.6130   -1.3270    2.5023 N.ar    1  UNL1       -0.1901
     26 S           0.3027   -1.6019    3.4619 S.2     1  UNL1        0.1165
     27 N          -0.9091   -1.1440    2.4461 N.ar    1  UNL1       -0.1901
     28 C          -0.3646   -0.7013    1.2988 C.ar    1  UNL1        0.1088
     29 C          -1.0869   -0.1910    0.1422 C.ar    1  UNL1        0.0193
     30 C          -2.5431    0.0887    0.0230 C.ar    1  UNL1        0.0000
     31 C          -3.4975    0.2509    1.1629 C.ar    1  UNL1       -0.0134
     32 C          -3.3133    0.5104    2.4694 C.2     1  UNL1       -0.0719
     33 H          -4.7543   -0.1777    3.9159 H       1  UNL1        0.0350
     34 H          -4.7244    1.5950    3.6750 H       1  UNL1        0.0350
     35 H          -6.6774    0.6114    2.1664 H       1  UNL1        0.0581
     36 H          -6.5662    0.3546   -0.5518 H       1  UNL1        0.0624
     37 H          -5.0449    0.3723   -2.4724 H       1  UNL1        0.0624
     38 H          -3.4287    0.7799   -4.2202 H       1  UNL1        0.1036
     39 H           0.6323    0.4004   -3.8722 H       1  UNL1        0.1036
     40 H           1.8167   -0.0454   -1.8747 H       1  UNL1        0.0631
     41 H           3.5262   -2.8066    0.8262 H       1  UNL1        0.0624
     42 H           5.9550   -3.0420    0.8067 H       1  UNL1        0.0618
     43 H           7.5172   -1.1558    0.1777 H       1  UNL1        0.0625
     44 H           7.2773    1.7025   -0.6527 H       1  UNL1        0.1035
     45 H           3.1975    2.1821   -0.5973 H       1  UNL1        0.1036
     46 H          -2.3772    0.6524    2.9816 H       1  UNL1        0.0581
@<TRIPOS>BOND
     1     1     2    1
     2     2     3    2
     3     3     4   ar
     4     4     5   ar
     5     5     6   ar
     6     6     7   ar
     7     7     8   ar
     8     8     9   ar
     9     9    10   ar
    10    10    11   ar
    11    11    12   ar
    12    12    13   ar
    13    13    14   ar
    14    14    15    1
    15    15    16   ar
    16    16    17   ar
    17    17    18   ar
    18    18    19   ar
    19    19    20   ar
    20    20    21   ar
    21    21    22   ar
    22    22    23   ar
    23    14    24   ar
    24    24    25   ar
    25    25    26   ar
    26    26    27   ar
    27    27    28   ar
    28    28    29   ar
    29    29    30   ar
    30    30    31   ar
    31    31    32    2
    32    32     1    1
    33    31     3   ar
    34    30     6   ar
    35    11     7   ar
    36    29    12   ar
    37    23    15   ar
    38    28    24   ar
    39    23    19   ar
    40     1    33    1
    41     1    34    1
    42     2    35    1
    43     4    36    1
    44     5    37    1
    45     8    38    1
    46    10    39    1
    47    13    40    1
    48    16    41    1
    49    17    42    1
    50    18    43    1
    51    20    44    1
    52    22    45    1
    53    32    46    1
