@<TRIPOS>MOLECULE
*****
 45 52 0 0 0
SMALL
GASTEIGER

@<TRIPOS>ATOM
      1 C          -4.5207   -2.8501   -0.6462 C.3     1  UNL1       -0.0148
      2 C          -5.5243   -1.8019   -0.2911 C.2     1  UNL1       -0.0725
      3 C          -4.8851   -0.6645    0.0113 C.ar    1  UNL1       -0.0211
      4 C          -5.4739    0.5854    0.4075 C.ar    1  UNL1       -0.0537
      5 C          -4.6783    1.6341    0.6783 C.ar    1  UNL1       -0.0528
      6 C          -3.2064    1.5246    0.5745 C.ar    1  UNL1       -0.0071
      7 C          -2.3341    2.5906    0.8458 C.ar    1  UNL1       -0.0024
      8 C          -2.7683    3.8429    1.2365 C.ar    1  UNL1       -0.0160
      9 S          -1.4784    4.9464    1.4968 S.2     1  UNL1       -0.1038
     10 C          -0.3045    3.7598    1.0883 C.ar    1  UNL1       -0.0159
     11 C          -0.9059    2.5767    0.7710 C.ar    1  UNL1       -0.0005
     12 C          -0.2760    1.3362    0.3737 C.ar    1  UNL1        0.0184
     13 C          -1.1323    0.2607    0.0976 C.ar    1  UNL1        0.0565
     14 N          -0.2857   -0.7728   -0.2534 N.ar    1  UNL1       -0.3536
     15 C           1.0421   -0.4051   -0.2092 C.ar    1  UNL1        0.0503
     16 C           2.1795   -1.1821   -0.4973 C.ar    1  UNL1       -0.0265
     17 C           3.4673   -0.6286   -0.3953 C.ar    1  UNL1        0.0284
     18 C           4.6768   -1.4066   -0.6877 C.ar    1  UNL1        0.0487
     19 C           4.8377   -2.7252   -1.0901 C.ar    1  UNL1       -0.0364
     20 C           6.2221   -2.9866   -1.2369 C.ar    1  UNL1       -0.0438
     21 C           6.8878   -1.8271   -0.9230 C.ar    1  UNL1        0.0022
     22 N           5.9527   -0.8839   -0.5945 N.ar    1  UNL1       -0.3606
     23 C           3.5277    0.7354    0.0101 C.ar    1  UNL1        0.1097
     24 N           4.6503    1.4761    0.1773 N.ar    1  UNL1       -0.1901
     25 S           4.1734    2.9982    0.6574 S.2     1  UNL1        0.1165
     26 N           2.5226    2.8009    0.6789 N.ar    1  UNL1       -0.1901
     27 C           2.3404    1.5459    0.3106 C.ar    1  UNL1        0.1102
     28 C           1.0500    0.9219    0.1863 C.ar    1  UNL1        0.0362
     29 C          -2.5513    0.3127    0.1846 C.ar    1  UNL1        0.0140
     30 C          -3.4342   -0.8436   -0.1117 C.ar    1  UNL1       -0.0121
     31 C          -3.2160   -2.1156   -0.4937 C.2     1  UNL1       -0.0719
     32 H          -4.5753   -3.6997    0.0408 H       1  UNL1        0.0350
     33 H          -4.6575   -3.1976   -1.6745 H       1  UNL1        0.0350
     34 H          -6.5925   -1.9547   -0.2837 H       1  UNL1        0.0581
     35 H          -6.5528    0.6652    0.4833 H       1  UNL1        0.0624
     36 H          -5.1296    2.5714    0.9762 H       1  UNL1        0.0624
     37 H          -3.7727    4.2060    1.3936 H       1  UNL1        0.0700
     38 H           0.7261    4.0572    1.1228 H       1  UNL1        0.0700
     39 H          -0.5873   -1.6951   -0.5153 H       1  UNL1        0.1659
     40 H           2.0554   -2.2187   -0.8009 H       1  UNL1        0.0645
     41 H           4.0433   -3.4386   -1.2641 H       1  UNL1        0.0639
     42 H           6.6803   -3.9194   -1.5387 H       1  UNL1        0.0633
     43 H           7.9428   -1.5894   -0.9043 H       1  UNL1        0.0807
     44 H           6.1493    0.0722   -0.3181 H       1  UNL1        0.1653
     45 H          -2.2846   -2.6138   -0.6825 H       1  UNL1        0.0581
@<TRIPOS>BOND
     1     1     2    1
     2     2     3    2
     3     3     4   ar
     4     4     5   ar
     5     5     6   ar
     6     6     7   ar
     7     7     8   ar
     8     8     9   ar
     9     9    10   ar
    10    10    11   ar
    11    11    12   ar
    12    12    13   ar
    13    13    14   ar
    14    14    15   ar
    15    15    16   ar
    16    16    17   ar
    17    17    18    1
    18    18    19   ar
    19    19    20   ar
    20    20    21   ar
    21    21    22   ar
    22    17    23   ar
    23    23    24   ar
    24    24    25   ar
    25    25    26   ar
    26    26    27   ar
    27    27    28   ar
    28    13    29   ar
    29    29    30   ar
    30    30    31    2
    31    31     1    1
    32    30     3   ar
    33    29     6   ar
    34    11     7   ar
    35    28    12   ar
    36    28    15   ar
    37    22    18   ar
    38    27    23   ar
    39     1    32    1
    40     1    33    1
    41     2    34    1
    42     4    35    1
    43     5    36    1
    44     8    37    1
    45    10    38    1
    46    14    39    1
    47    16    40    1
    48    19    41    1
    49    20    42    1
    50    21    43    1
    51    22    44    1
    52    31    45    1
