@<TRIPOS>MOLECULE
*****
 46 53 0 0 0
SMALL
GASTEIGER

@<TRIPOS>ATOM
      1 C          -5.3341   -2.7068   -1.2343 C.3     1  UNL1        0.0000
      2 C          -6.2372   -1.6613   -0.6595 C.2     1  UNL1        0.0000
      3 C          -5.4979   -0.6357   -0.2156 C.ar    1  UNL1        0.0000
      4 C          -5.9657    0.5694    0.4049 C.ar    1  UNL1        0.0000
      5 C          -5.0717    1.4942    0.7885 C.ar    1  UNL1        0.0000
      6 C          -3.6222    1.2898    0.5820 C.ar    1  UNL1        0.0000
      7 C          -2.6614    2.2326    0.9695 C.ar    1  UNL1        0.0000
      8 C          -2.9649    3.4325    1.5756 C.ar    1  UNL1        0.0000
      9 S          -1.5685    4.3541    1.9205 S.2     1  UNL1        0.0000
     10 C          -0.5456    3.1481    1.2583 C.ar    1  UNL1        0.0000
     11 C          -1.2345    2.0564    0.7782 C.ar    1  UNL1        0.0000
     12 C          -0.6379    0.8945    0.1688 C.ar    1  UNL1        0.0000
     13 C           0.7368    0.5902   -0.0812 C.ar    1  UNL1        0.0000
     14 SI          2.3471    1.5206    0.2515 Si      1  UNL1        0.0000
     15 C           3.3164    0.1195   -0.5028 C.2     1  UNL1        0.0000
     16 C           2.5236   -0.8801   -0.9276 C.2     1  UNL1        0.0000
     17 C           1.0927   -0.6270   -0.6998 C.ar    1  UNL1        0.0000
     18 C           0.0875   -1.4914   -1.0445 C.ar    1  UNL1        0.0000
     19 N          -1.2179   -1.2298   -0.8210 N.ar    1  UNL1        0.0000
     20 C          -1.6280   -0.0821   -0.2326 C.ar    1  UNL1        0.0000
     21 C          -3.0446    0.1172   -0.0308 C.ar    1  UNL1        0.0000
     22 C          -4.0756   -0.8940   -0.4462 C.ar    1  UNL1        0.0000
     23 C          -3.9773   -2.0985   -1.0389 C.2     1  UNL1        0.0000
     24 C           4.7213    0.1081   -0.5898 C.ar    1  UNL1        0.0000
     25 S           5.6362    1.2426   -1.5208 S.2     1  UNL1        0.0000
     26 C           7.1450    0.5279   -1.1000 C.ar    1  UNL1        0.0000
     27 C           6.8958   -0.5200   -0.2847 C.ar    1  UNL1        0.0000
     28 C           7.7306   -1.4592    0.3664 C.ar    1  UNL1        0.0000
     29 C           7.0035   -2.3801    1.1293 C.ar    1  UNL1        0.0000
     30 S           5.2550   -2.1894    1.1262 S.2     1  UNL1        0.0000
     31 C           5.5616   -0.7872    0.0235 C.ar    1  UNL1        0.0000
     32 H          -5.4251   -3.6511   -0.6896 H       1  UNL1        0.0000
     33 H          -5.5437   -2.8707   -2.2953 H       1  UNL1        0.0000
     34 H          -7.3124   -1.7395   -0.6180 H       1  UNL1        0.0000
     35 H          -7.0295    0.7154    0.5545 H       1  UNL1        0.0000
     36 H          -5.4292    2.4022    1.2565 H       1  UNL1        0.0000
     37 H          -3.9250    3.8456    1.8476 H       1  UNL1        0.0000
     38 H           0.5073    3.3626    1.2848 H       1  UNL1        0.0000
     39 H           2.4164    2.7830   -0.5283 H       1  UNL1        0.0000
     40 H           2.5899    1.6918    1.7069 H       1  UNL1        0.0000
     41 H           2.8671   -1.7955   -1.3929 H       1  UNL1        0.0000
     42 H           0.2887   -2.4453   -1.5219 H       1  UNL1        0.0000
     43 H          -3.0720   -2.5960   -1.3474 H       1  UNL1        0.0000
     44 H           8.0816    0.9192   -1.4711 H       1  UNL1        0.0000
     45 H           8.8115   -1.4846    0.3004 H       1  UNL1        0.0000
     46 H           7.4065   -3.1924    1.7190 H       1  UNL1        0.0000
@<TRIPOS>BOND
     1     1     2    1
     2     2     3    2
     3     3     4   ar
     4     4     5   ar
     5     5     6   ar
     6     6     7   ar
     7     7     8   ar
     8     8     9   ar
     9     9    10   ar
    10    10    11   ar
    11    11    12   ar
    12    12    13   ar
    13    13    14    1
    14    14    15    1
    15    15    16    2
    16    16    17    1
    17    17    18   ar
    18    18    19   ar
    19    19    20   ar
    20    20    21   ar
    21    21    22   ar
    22    22    23    2
    23    15    24    1
    24    24    25   ar
    25    25    26   ar
    26    26    27   ar
    27    27    28   ar
    28    28    29   ar
    29    29    30   ar
    30    30    31   ar
    31    23     1    1
    32    31    24   ar
    33    22     3   ar
    34    31    27   ar
    35    21     6   ar
    36    11     7   ar
    37    20    12   ar
    38    17    13   ar
    39     1    32    1
    40     1    33    1
    41     2    34    1
    42     4    35    1
    43     5    36    1
    44     8    37    1
    45    10    38    1
    46    14    39    1
    47    14    40    1
    48    16    41    1
    49    18    42    1
    50    23    43    1
    51    26    44    1
    52    28    45    1
    53    29    46    1
