@<TRIPOS>MOLECULE
*****
 49 56 0 0 0
SMALL
GASTEIGER

@<TRIPOS>ATOM
      1 SI         -1.1800    0.3588   -3.6486 Si      1  UNL1        0.0000
      2 C          -2.2538    0.5230   -2.1392 C.2     1  UNL1        0.0000
      3 C          -1.5468    0.3302   -1.0059 C.ar    1  UNL1        0.0000
      4 C          -2.1383    0.1956    0.3210 C.ar    1  UNL1        0.0000
      5 C          -1.3465   -0.2065    1.3360 C.ar    1  UNL1        0.0000
      6 C           0.1071   -0.4334    1.1684 C.ar    1  UNL1        0.0000
      7 C           0.8434   -0.9239    2.2437 C.ar    1  UNL1        0.0000
      8 N           2.1803   -1.0989    2.2448 N.ar    1  UNL1        0.0000
      9 C           2.8438   -0.6590    1.1464 C.ar    1  UNL1        0.0000
     10 C           4.2505   -0.8069    1.2716 C.ar    1  UNL1        0.0000
     11 N           5.0271   -1.3627    2.2682 N.ar    1  UNL1        0.0000
     12 C           6.3657   -1.2617    1.9461 C.ar    1  UNL1        0.0000
     13 C           6.4800   -0.6153    0.7295 C.ar    1  UNL1        0.0000
     14 C           5.1671   -0.3570    0.3467 C.ar    1  UNL1        0.0000
     15 C           4.6394    0.3268   -0.7686 C.ar    1  UNL1        0.0000
     16 C           5.3068    0.9741   -1.7624 C.ar    1  UNL1        0.0000
     17 N           4.3141    1.5728   -2.5043 N.ar    1  UNL1        0.0000
     18 C           3.0723    1.2982   -1.9513 C.ar    1  UNL1        0.0000
     19 C           3.2375    0.4357   -0.8860 C.ar    1  UNL1        0.0000
     20 C           2.2253   -0.0849   -0.0085 C.ar    1  UNL1        0.0000
     21 C           0.7923   -0.1093   -0.0302 C.ar    1  UNL1        0.0000
     22 C          -0.0880    0.1242   -1.2082 C.ar    1  UNL1        0.0000
     23 C           0.2522   -0.0050   -2.5077 C.2     1  UNL1        0.0000
     24 C          -3.5485    0.4364    0.6309 C.ar    1  UNL1        0.0000
     25 C          -4.0599    1.6817    1.0672 C.ar    1  UNL1        0.0000
     26 C          -5.4419    1.9137    1.3635 C.ar    1  UNL1        0.0000
     27 C          -6.4493    0.9299    1.2523 C.ar    1  UNL1        0.0000
     28 C          -5.9389   -0.2940    0.8173 C.ar    1  UNL1        0.0000
     29 C          -6.7308   -1.3997    0.6304 C.ar    1  UNL1        0.0000
     30 S          -5.8056   -2.7433    0.0876 S.2     1  UNL1        0.0000
     31 C          -4.3418   -1.8402    0.1049 C.ar    1  UNL1        0.0000
     32 C          -4.5496   -0.5435    0.5154 C.ar    1  UNL1        0.0000
     33 H          -1.0048    1.6419   -4.3719 H       1  UNL1        0.0000
     34 H          -1.5451   -0.8067   -4.4888 H       1  UNL1        0.0000
     35 H          -3.3212    0.6516   -2.2299 H       1  UNL1        0.0000
     36 H          -1.7527   -0.3426    2.3354 H       1  UNL1        0.0000
     37 H           0.3578   -1.2065    3.1744 H       1  UNL1        0.0000
     38 H           4.6383   -1.7777    3.1047 H       1  UNL1        0.0000
     39 H           7.1171   -1.6508    2.6199 H       1  UNL1        0.0000
     40 H           7.3986   -0.3691    0.2158 H       1  UNL1        0.0000
     41 H           6.3539    1.1097   -1.9937 H       1  UNL1        0.0000
     42 H           4.4693    2.1771   -3.3008 H       1  UNL1        0.0000
     43 H           2.2002    1.7784   -2.3702 H       1  UNL1        0.0000
     44 H           1.2052   -0.2944   -2.9175 H       1  UNL1        0.0000
     45 H          -3.3675    2.5166    1.1834 H       1  UNL1        0.0000
     46 H          -5.7307    2.9124    1.6935 H       1  UNL1        0.0000
     47 H          -7.4882    1.1280    1.4808 H       1  UNL1        0.0000
     48 H          -7.7969   -1.5045    0.7772 H       1  UNL1        0.0000
     49 H          -3.4181   -2.3194   -0.1905 H       1  UNL1        0.0000
@<TRIPOS>BOND
     1     1     2    1
     2     2     3    2
     3     3     4   ar
     4     4     5   ar
     5     5     6   ar
     6     6     7   ar
     7     7     8   ar
     8     8     9   ar
     9     9    10   ar
    10    10    11   ar
    11    11    12   ar
    12    12    13   ar
    13    13    14   ar
    14    14    15   ar
    15    15    16   ar
    16    16    17   ar
    17    17    18   ar
    18    18    19   ar
    19    19    20   ar
    20    20    21   ar
    21    21    22   ar
    22    22    23    2
    23     4    24    1
    24    24    25   ar
    25    25    26   ar
    26    26    27   ar
    27    27    28   ar
    28    28    29   ar
    29    29    30   ar
    30    30    31   ar
    31    31    32   ar
    32    23     1    1
    33    32    24   ar
    34    22     3   ar
    35    32    28   ar
    36    21     6   ar
    37    20     9   ar
    38    14    10   ar
    39    19    15   ar
    40     1    33    1
    41     1    34    1
    42     2    35    1
    43     5    36    1
    44     7    37    1
    45    11    38    1
    46    12    39    1
    47    13    40    1
    48    16    41    1
    49    17    42    1
    50    18    43    1
    51    23    44    1
    52    25    45    1
    53    26    46    1
    54    27    47    1
    55    29    48    1
    56    31    49    1
