@<TRIPOS>MOLECULE
*****
 47 54 0 0 0
SMALL
GASTEIGER

@<TRIPOS>ATOM
      1 C          -5.4496   -3.0060   -0.9721 C.3     1  UNL1       -0.0148
      2 C          -6.3550   -1.9128   -0.5037 C.2     1  UNL1       -0.0725
      3 C          -5.6154   -0.8662   -0.1137 C.ar    1  UNL1       -0.0212
      4 C          -6.0887    0.4294    0.2796 C.ar    1  UNL1       -0.0537
      5 C          -5.1966    1.4122    0.4815 C.ar    1  UNL1       -0.0528
      6 C          -3.7447    1.1600    0.3693 C.ar    1  UNL1       -0.0084
      7 C          -2.7810    2.1600    0.5608 C.ar    1  UNL1       -0.0025
      8 C          -3.0886    3.4818    0.8014 C.ar    1  UNL1       -0.0160
      9 S          -1.6939    4.4313    1.0703 S.2     1  UNL1       -0.1038
     10 C          -0.6673    3.0729    0.8738 C.ar    1  UNL1       -0.0160
     11 C          -1.3472    1.9264    0.5223 C.ar    1  UNL1       -0.0018
     12 C          -0.7293    0.6434    0.3029 C.ar    1  UNL1        0.0030
     13 C           0.6857    0.3015    0.1863 C.ar    1  UNL1        0.0268
     14 C           1.7698    1.1732   -0.0015 C.ar    1  UNL1        0.0380
     15 N           3.0749    0.8158   -0.0770 N.ar    1  UNL1       -0.2536
     16 C           3.3644   -0.5007    0.0115 C.ar    1  UNL1        0.0816
     17 C           2.3617   -1.4457    0.1440 C.ar    1  UNL1       -0.0091
     18 C           1.0357   -1.0532    0.2129 C.ar    1  UNL1        0.0751
     19 N           0.1239   -2.0190    0.3036 N.ar    1  UNL1       -0.2542
     20 C          -1.1882   -1.6756    0.2924 C.ar    1  UNL1        0.0366
     21 C          -1.7261   -0.3887    0.2229 C.ar    1  UNL1        0.0098
     22 C          -3.1667   -0.1369    0.1373 C.ar    1  UNL1       -0.0007
     23 C          -4.1878   -1.1752   -0.2247 C.ar    1  UNL1       -0.0134
     24 C          -4.0884   -2.3957   -0.7854 C.2     1  UNL1       -0.0719
     25 C           4.7895   -0.8334   -0.0630 C.ar    1  UNL1        0.0614
     26 S           5.4342   -2.4463    0.0662 S.2     1  UNL1       -0.0924
     27 C           7.0846   -1.9356   -0.1181 C.ar    1  UNL1       -0.0145
     28 C           7.0787   -0.5966   -0.2647 C.ar    1  UNL1        0.0073
     29 C           7.9570    0.4989   -0.4527 C.ar    1  UNL1       -0.0361
     30 C           7.1592    1.6621   -0.5184 C.ar    1  UNL1        0.0028
     31 N           5.8073    1.3625   -0.3810 N.ar    1  UNL1       -0.3597
     32 C           5.8408    0.0045   -0.2350 C.ar    1  UNL1        0.0629
     33 H          -5.5652   -3.9091   -0.3660 H       1  UNL1        0.0350
     34 H          -5.6310   -3.2416   -2.0249 H       1  UNL1        0.0350
     35 H          -7.4326   -1.9529   -0.5467 H       1  UNL1        0.0581
     36 H          -7.1547    0.6066    0.3694 H       1  UNL1        0.0624
     37 H          -5.5548    2.3949    0.7604 H       1  UNL1        0.0624
     38 H          -4.0518    3.9674    0.8565 H       1  UNL1        0.0700
     39 H           0.3788    3.2386    1.0675 H       1  UNL1        0.0700
     40 H           1.6279    2.2347   -0.1619 H       1  UNL1        0.0836
     41 H           2.5864   -2.5061    0.1878 H       1  UNL1        0.0660
     42 H          -1.8236   -2.5470    0.4111 H       1  UNL1        0.0836
     43 H          -3.1983   -2.9056   -1.1156 H       1  UNL1        0.0581
     44 H           7.9033   -2.6400   -0.1038 H       1  UNL1        0.0700
     45 H           9.0355    0.4762   -0.5334 H       1  UNL1        0.0639
     46 H           7.4551    2.6943   -0.6541 H       1  UNL1        0.0807
     47 H           4.9721    1.9414   -0.3786 H       1  UNL1        0.1654
@<TRIPOS>BOND
     1     1     2    1
     2     2     3    2
     3     3     4   ar
     4     4     5   ar
     5     5     6   ar
     6     6     7   ar
     7     7     8   ar
     8     8     9   ar
     9     9    10   ar
    10    10    11   ar
    11    11    12   ar
    12    12    13   ar
    13    13    14   ar
    14    14    15   ar
    15    15    16   ar
    16    16    17   ar
    17    17    18   ar
    18    18    19   ar
    19    19    20   ar
    20    20    21   ar
    21    21    22   ar
    22    22    23   ar
    23    23    24    2
    24    16    25    1
    25    25    26   ar
    26    26    27   ar
    27    27    28   ar
    28    28    29   ar
    29    29    30   ar
    30    30    31   ar
    31    31    32   ar
    32    24     1    1
    33    32    25   ar
    34    23     3   ar
    35    32    28   ar
    36    22     6   ar
    37    11     7   ar
    38    21    12   ar
    39    18    13   ar
    40     1    33    1
    41     1    34    1
    42     2    35    1
    43     4    36    1
    44     5    37    1
    45     8    38    1
    46    10    39    1
    47    14    40    1
    48    17    41    1
    49    20    42    1
    50    24    43    1
    51    27    44    1
    52    29    45    1
    53    30    46    1
    54    31    47    1
