@<TRIPOS>MOLECULE
*****
 48 55 0 0 0
SMALL
GASTEIGER

@<TRIPOS>ATOM
      1 C          -4.9843   -2.7913    1.3232 C.3     1  UNL1       -0.0148
      2 C          -6.0940   -1.9411    0.7747 C.2     1  UNL1       -0.0725
      3 C          -5.5712   -0.8626    0.1755 C.ar    1  UNL1       -0.0211
      4 C          -6.2579    0.2189   -0.4859 C.ar    1  UNL1       -0.0537
      5 C          -5.5484    1.2249   -1.0337 C.ar    1  UNL1       -0.0527
      6 C          -4.0702    1.2371   -0.9667 C.ar    1  UNL1       -0.0055
      7 C          -3.2640    2.2532   -1.5154 C.ar    1  UNL1       -0.0023
      8 C          -3.7463    3.3613   -2.1821 C.ar    1  UNL1       -0.0160
      9 S          -2.4877    4.4110   -2.7276 S.2     1  UNL1       -0.1038
     10 C          -1.2576    3.3977   -2.0784 C.ar    1  UNL1       -0.0159
     11 C          -1.8394    2.3183   -1.4817 C.ar    1  UNL1        0.0011
     12 C          -1.1550    1.2475   -0.8265 C.ar    1  UNL1        0.0382
     13 C           0.2036    0.9886   -0.6082 C.ar    1  UNL1        0.0466
     14 C           1.4416    1.5573   -0.8756 C.ar    1  UNL1        0.0396
     15 N           2.5795    0.9391   -0.4600 N.ar    1  UNL1       -0.2541
     16 C           2.5566   -0.2381    0.2213 C.ar    1  UNL1        0.0751
     17 C           1.3486   -0.8648    0.5238 C.ar    1  UNL1        0.0073
     18 C           0.2009   -0.2137    0.0887 C.ar    1  UNL1        0.1398
     19 O          -1.0726   -0.6682    0.2882 O.2     1  UNL1       -0.4540
     20 C          -1.9293    0.2395   -0.2810 C.ar    1  UNL1        0.1452
     21 C          -3.3355    0.1891   -0.3223 C.ar    1  UNL1        0.0330
     22 C          -4.1144   -0.9040    0.2725 C.ar    1  UNL1       -0.0105
     23 C          -3.7571   -2.0159    0.9351 C.2     1  UNL1       -0.0718
     24 C           3.8621   -0.8098    0.6185 C.ar    1  UNL1        0.0096
     25 C           4.0339   -2.0385    1.3404 C.ar    1  UNL1       -0.0519
     26 C           5.2916   -2.6201    1.7410 C.ar    1  UNL1       -0.0605
     27 C           6.5450   -2.0457    1.4703 C.ar    1  UNL1       -0.0526
     28 C           6.3849   -0.8594    0.7736 C.ar    1  UNL1        0.0000
     29 C           7.4176   -0.0580    0.3600 C.ar    1  UNL1        0.0094
     30 N           6.8502    1.0124   -0.2897 N.ar    1  UNL1       -0.3659
     31 C           5.4772    0.8949   -0.2903 C.ar    1  UNL1        0.0100
     32 C           5.1411   -0.2668    0.3673 C.ar    1  UNL1        0.0086
     33 H          -5.0619   -2.8872    2.4102 H       1  UNL1        0.0350
     34 H          -4.9844   -3.7840    0.8635 H       1  UNL1        0.0350
     35 H          -7.1431   -2.1784    0.8598 H       1  UNL1        0.0581
     36 H          -7.3413    0.2054   -0.5324 H       1  UNL1        0.0624
     37 H          -6.0676    2.0353   -1.5296 H       1  UNL1        0.0624
     38 H          -4.7667    3.6435   -2.3969 H       1  UNL1        0.0700
     39 H          -0.2205    3.6747   -2.1870 H       1  UNL1        0.0700
     40 H           1.5846    2.4885   -1.4083 H       1  UNL1        0.0837
     41 H           1.2678   -1.7974    1.0603 H       1  UNL1        0.0676
     42 H          -2.7519   -2.3306    1.1680 H       1  UNL1        0.0581
     43 H           3.1543   -2.6126    1.6298 H       1  UNL1        0.0624
     44 H           5.2641   -3.5635    2.2874 H       1  UNL1        0.0618
     45 H           7.4851   -2.4835    1.7715 H       1  UNL1        0.0624
     46 H           8.4909   -0.1402    0.4616 H       1  UNL1        0.0813
     47 H           7.3623    1.7775   -0.7083 H       1  UNL1        0.1648
     48 H           4.8787    1.6597   -0.7643 H       1  UNL1        0.0813
@<TRIPOS>BOND
     1     1     2    1
     2     2     3    2
     3     3     4   ar
     4     4     5   ar
     5     5     6   ar
     6     6     7   ar
     7     7     8   ar
     8     8     9   ar
     9     9    10   ar
    10    10    11   ar
    11    11    12   ar
    12    12    13   ar
    13    13    14   ar
    14    14    15   ar
    15    15    16   ar
    16    16    17   ar
    17    17    18   ar
    18    18    19   ar
    19    19    20   ar
    20    20    21   ar
    21    21    22   ar
    22    22    23    2
    23    16    24    1
    24    24    25   ar
    25    25    26   ar
    26    26    27   ar
    27    27    28   ar
    28    28    29   ar
    29    29    30   ar
    30    30    31   ar
    31    31    32   ar
    32    23     1    1
    33    32    24   ar
    34    22     3   ar
    35    32    28   ar
    36    21     6   ar
    37    11     7   ar
    38    20    12   ar
    39    18    13   ar
    40     1    33    1
    41     1    34    1
    42     2    35    1
    43     4    36    1
    44     5    37    1
    45     8    38    1
    46    10    39    1
    47    14    40    1
    48    17    41    1
    49    23    42    1
    50    25    43    1
    51    26    44    1
    52    27    45    1
    53    29    46    1
    54    30    47    1
    55    31    48    1
