@<TRIPOS>MOLECULE
*****
 42 49 0 0 0
SMALL
GASTEIGER

@<TRIPOS>ATOM
      1 C          -5.4143    3.0800    0.2187 C.3     1  UNL1       -0.0148
      2 C          -6.1343    1.7724    0.3181 C.2     1  UNL1       -0.0725
      3 C          -5.2399    0.7750    0.3189 C.ar    1  UNL1       -0.0212
      4 C          -5.5061   -0.6355    0.3996 C.ar    1  UNL1       -0.0537
      5 C          -4.4813   -1.5051    0.3873 C.ar    1  UNL1       -0.0528
      6 C          -3.0815   -1.0367    0.2923 C.ar    1  UNL1       -0.0080
      7 C          -1.9849   -1.9219    0.2770 C.ar    1  UNL1       -0.0024
      8 C          -2.0787   -3.2979    0.3468 C.ar    1  UNL1       -0.0160
      9 S          -0.5373   -4.0767    0.3033 S.2     1  UNL1       -0.1038
     10 C           0.2959   -2.5778    0.1892 C.ar    1  UNL1       -0.0159
     11 C          -0.6147   -1.5609    0.1886 C.ar    1  UNL1        0.0015
     12 C          -0.3518   -0.1626    0.1090 C.ar    1  UNL1        0.0409
     13 C           0.9378    0.3437    0.0179 C.ar    1  UNL1        0.1510
     14 O           2.1979   -0.1664   -0.0237 O.2     1  UNL1       -0.4531
     15 C           3.0520    0.9092   -0.1190 C.ar    1  UNL1        0.1444
     16 C           2.3287    2.0911   -0.1369 C.ar    1  UNL1       -0.0009
     17 C           0.9748    1.6910   -0.0475 C.ar    1  UNL1        0.0591
     18 S          -0.6239    2.3679    0.0039 S.2     1  UNL1       -0.0843
     19 C          -1.3710    0.7788    0.1177 C.ar    1  UNL1        0.0324
     20 C          -2.7367    0.3662    0.2081 C.ar    1  UNL1        0.0046
     21 C          -3.8794    1.3117    0.2228 C.ar    1  UNL1       -0.0130
     22 C          -3.9750    2.6520    0.1642 C.2     1  UNL1       -0.0719
     23 C           4.4818    0.7452   -0.1861 C.ar    1  UNL1        0.0687
     24 S           5.5855    2.0752   -0.3049 S.2     1  UNL1       -0.0919
     25 C           6.9741    1.0631   -0.3308 C.ar    1  UNL1       -0.0154
     26 C           6.5533   -0.2173   -0.2499 C.ar    1  UNL1       -0.0031
     27 C           7.2435   -1.4520   -0.2291 C.ar    1  UNL1       -0.0465
     28 C           6.3768   -2.5452   -0.1336 C.ar    1  UNL1       -0.0231
     29 S           4.6614   -2.1749   -0.0610 S.2     1  UNL1       -0.0954
     30 C           5.1765   -0.4397   -0.1678 C.ar    1  UNL1        0.0370
     31 H          -5.6059    3.7049    1.0958 H       1  UNL1        0.0350
     32 H          -5.6986    3.6202   -0.6890 H       1  UNL1        0.0350
     33 H          -7.2065    1.6688    0.3788 H       1  UNL1        0.0581
     34 H          -6.5325   -0.9787    0.4692 H       1  UNL1        0.0624
     35 H          -4.6895   -2.5656    0.4484 H       1  UNL1        0.0624
     36 H          -2.9541   -3.9258    0.4220 H       1  UNL1        0.0700
     37 H           1.3748   -2.5550    0.1320 H       1  UNL1        0.0700
     38 H           2.7122    3.0986   -0.2044 H       1  UNL1        0.0667
     39 H          -3.1770    3.3698    0.0886 H       1  UNL1        0.0581
     40 H           7.9738    1.4681   -0.4017 H       1  UNL1        0.0700
     41 H           8.3194   -1.5671   -0.2800 H       1  UNL1        0.0629
     42 H           6.6547   -3.5900   -0.1000 H       1  UNL1        0.0694
@<TRIPOS>BOND
     1     1     2    1
     2     2     3    2
     3     3     4   ar
     4     4     5   ar
     5     5     6   ar
     6     6     7   ar
     7     7     8   ar
     8     8     9   ar
     9     9    10   ar
    10    10    11   ar
    11    11    12   ar
    12    12    13   ar
    13    13    14   ar
    14    14    15   ar
    15    15    16   ar
    16    16    17   ar
    17    17    18   ar
    18    18    19   ar
    19    19    20   ar
    20    20    21   ar
    21    21    22    2
    22    15    23    1
    23    23    24   ar
    24    24    25   ar
    25    25    26   ar
    26    26    27   ar
    27    27    28   ar
    28    28    29   ar
    29    29    30   ar
    30    22     1    1
    31    30    23   ar
    32    21     3   ar
    33    30    26   ar
    34    20     6   ar
    35    11     7   ar
    36    19    12   ar
    37    17    13   ar
    38     1    31    1
    39     1    32    1
    40     2    33    1
    41     4    34    1
    42     5    35    1
    43     8    36    1
    44    10    37    1
    45    16    38    1
    46    22    39    1
    47    25    40    1
    48    27    41    1
    49    28    42    1
