@<TRIPOS>MOLECULE
*****
 42 48 0 0 0
SMALL
GASTEIGER

@<TRIPOS>ATOM
      1 C          -4.0993    3.4450   -0.4577 C.3     1  UNL1       -0.0148
      2 C          -5.2606    2.5121   -0.3145 C.2     1  UNL1       -0.0725
      3 C          -4.8067    1.2629   -0.1478 C.ar    1  UNL1       -0.0211
      4 C          -5.5821    0.0617    0.0278 C.ar    1  UNL1       -0.0537
      5 C          -4.9510   -1.1155    0.1826 C.ar    1  UNL1       -0.0513
      6 C          -3.4738   -1.1932    0.1748 C.ar    1  UNL1        0.0129
      7 C          -2.8325   -2.4484    0.3401 C.ar    1  UNL1        0.1083
      8 N          -3.4189   -3.6542    0.5142 N.ar    1  UNL1       -0.1901
      9 S          -2.1926   -4.7831    0.6547 S.2     1  UNL1        0.1165
     10 N          -0.8486   -3.7972    0.5013 N.ar    1  UNL1       -0.1901
     11 C          -1.3870   -2.5979    0.3424 C.ar    1  UNL1        0.1102
     12 C          -0.6054   -1.4107    0.1682 C.ar    1  UNL1        0.0376
     13 C           0.7941   -1.2957    0.1342 C.ar    1  UNL1        0.0277
     14 C           1.8935   -2.1517    0.2382 C.ar    1  UNL1        0.0380
     15 N           3.1572   -1.6612    0.1536 N.ar    1  UNL1       -0.2545
     16 C           3.3634   -0.3353   -0.0328 C.ar    1  UNL1        0.0693
     17 C           2.3234    0.5852   -0.1464 C.ar    1  UNL1       -0.0120
     18 C           1.0304    0.0647   -0.0572 C.ar    1  UNL1        0.0511
     19 N          -0.1940    0.7014   -0.1292 N.ar    1  UNL1       -0.3535
     20 C          -1.2406   -0.1881    0.0074 C.ar    1  UNL1        0.0581
     21 C          -2.6439   -0.0380    0.0046 C.ar    1  UNL1        0.0156
     22 C          -3.3402    1.2529   -0.1648 C.ar    1  UNL1       -0.0120
     23 C          -2.9192    2.5171   -0.3444 C.2     1  UNL1       -0.0719
     24 C           4.7687    0.0709   -0.1080 C.2     1  UNL1       -0.0182
     25 C           5.3042    1.2926   -0.2855 C.2     1  UNL1       -0.0565
     26 C           6.7420    1.1977   -0.2916 C.2     1  UNL1       -0.0650
     27 C           7.1045   -0.0802   -0.1183 C.2     1  UNL1       -0.0796
     28 C           5.8796   -0.9420    0.0183 C.3     1  UNL1       -0.0072
     29 H          -4.1122    3.9463   -1.4299 H       1  UNL1        0.0350
     30 H          -4.0901    4.1909    0.3425 H       1  UNL1        0.0350
     31 H          -6.2958    2.8156   -0.3434 H       1  UNL1        0.0581
     32 H          -6.6649    0.1221    0.0331 H       1  UNL1        0.0624
     33 H          -5.5158   -2.0331    0.3164 H       1  UNL1        0.0624
     34 H           1.8049   -3.2220    0.3876 H       1  UNL1        0.0836
     35 H           2.4971    1.6424   -0.2950 H       1  UNL1        0.0660
     36 H          -0.2934    1.6941   -0.2653 H       1  UNL1        0.1659
     37 H          -1.9116    2.8837   -0.4074 H       1  UNL1        0.0581
     38 H           4.7806    2.2273   -0.4090 H       1  UNL1        0.0621
     39 H           7.4072    2.0384   -0.4178 H       1  UNL1        0.0615
     40 H           8.1173   -0.4509   -0.0803 H       1  UNL1        0.0575
     41 H           5.8442   -1.6872   -0.7830 H       1  UNL1        0.0356
     42 H           5.8680   -1.4395    0.9935 H       1  UNL1        0.0356
@<TRIPOS>BOND
     1     1     2    1
     2     2     3    2
     3     3     4   ar
     4     4     5   ar
     5     5     6   ar
     6     6     7   ar
     7     7     8   ar
     8     8     9   ar
     9     9    10   ar
    10    10    11   ar
    11    11    12   ar
    12    12    13   ar
    13    13    14   ar
    14    14    15   ar
    15    15    16   ar
    16    16    17   ar
    17    17    18   ar
    18    18    19   ar
    19    19    20   ar
    20    20    21   ar
    21    21    22   ar
    22    22    23    2
    23    16    24    1
    24    24    25    2
    25    25    26    1
    26    26    27    2
    27    27    28    1
    28    23     1    1
    29    28    24    1
    30    22     3   ar
    31    21     6   ar
    32    11     7   ar
    33    20    12   ar
    34    18    13   ar
    35     1    29    1
    36     1    30    1
    37     2    31    1
    38     4    32    1
    39     5    33    1
    40    14    34    1
    41    17    35    1
    42    19    36    1
    43    23    37    1
    44    25    38    1
    45    26    39    1
    46    27    40    1
    47    28    41    1
    48    28    42    1
