@<TRIPOS>MOLECULE
*****
 50 57 0 0 0
SMALL
GASTEIGER

@<TRIPOS>ATOM
      1 C          -5.6420    3.3305    1.1167 C.3     1  UNL1       -0.0148
      2 C          -6.5066    2.1401    0.8121 C.2     1  UNL1       -0.0725
      3 C          -5.7270    1.0968    0.4980 C.ar    1  UNL1       -0.0212
      4 C          -6.1098   -0.2427    0.1375 C.ar    1  UNL1       -0.0537
      5 C          -5.1497   -1.1441   -0.1425 C.ar    1  UNL1       -0.0534
      6 C          -3.7055   -0.7919   -0.0890 C.ar    1  UNL1       -0.0167
      7 C          -2.7455   -1.7572   -0.3890 C.ar    1  UNL1       -0.0457
      8 C          -1.3701   -1.4522   -0.3468 C.ar    1  UNL1       -0.0092
      9 C          -0.9079   -0.1494    0.0057 C.ar    1  UNL1       -0.0069
     10 C          -1.9048    0.8051    0.2997 C.ar    1  UNL1       -0.0451
     11 C          -3.2766    0.5062    0.2589 C.ar    1  UNL1       -0.0099
     12 C          -4.3259    1.4930    0.5652 C.ar    1  UNL1       -0.0141
     13 C          -4.2544    2.7856    0.9227 C.2     1  UNL1       -0.0720
     14 C           0.5715    0.1491    0.0459 C.ar    1  UNL1        0.0186
     15 C           1.1413    1.4192    0.4066 C.ar    1  UNL1        0.1087
     16 N           0.4786    2.5327    0.7712 N.ar    1  UNL1       -0.1901
     17 S           1.5754    3.7135    1.0986 S.2     1  UNL1        0.1165
     18 N           2.9758    2.9056    0.7993 N.ar    1  UNL1       -0.1902
     19 C           2.6577    1.6542    0.4191 C.ar    1  UNL1        0.1079
     20 C           3.5702    0.6188    0.0693 C.ar    1  UNL1        0.0072
     21 C           2.9620   -0.6081   -0.2594 C.ar    1  UNL1       -0.0438
     22 C           1.5566   -0.8453   -0.2768 C.ar    1  UNL1       -0.0071
     23 C           1.0555   -2.1851   -0.6423 C.ar    1  UNL1       -0.0134
     24 C           1.7344   -3.2958   -0.9835 C.2     1  UNL1       -0.0719
     25 C           0.7794   -4.4151   -1.2661 C.3     1  UNL1       -0.0148
     26 C          -0.5466   -3.7623   -1.0308 C.2     1  UNL1       -0.0719
     27 C          -0.3688   -2.4782   -0.6726 C.ar    1  UNL1       -0.0135
     28 C           5.0290    0.7960    0.0743 C.2     1  UNL1       -0.0344
     29 C           5.7528    1.9306    0.0994 C.2     1  UNL1       -0.0579
     30 C           7.1603    1.6259    0.1021 C.2     1  UNL1       -0.0651
     31 C           7.3275    0.2984    0.0733 C.2     1  UNL1       -0.0797
     32 C           5.9875   -0.3755    0.0431 C.3     1  UNL1       -0.0086
     33 H          -5.8430    4.1513    0.4221 H       1  UNL1        0.0350
     34 H          -5.7903    3.6719    2.1454 H       1  UNL1        0.0350
     35 H          -7.5848    2.1435    0.8462 H       1  UNL1        0.0581
     36 H          -7.1608   -0.5046    0.0969 H       1  UNL1        0.0624
     37 H          -5.4161   -2.1594   -0.4166 H       1  UNL1        0.0624
     38 H          -3.0751   -2.7560   -0.6592 H       1  UNL1        0.0630
     39 H          -1.6414    1.8190    0.5698 H       1  UNL1        0.0630
     40 H          -3.3559    3.3673    1.0574 H       1  UNL1        0.0581
     41 H           3.6177   -1.4338   -0.5291 H       1  UNL1        0.0630
     42 H           2.8034   -3.4151   -1.0566 H       1  UNL1        0.0581
     43 H           0.9364   -5.2516   -0.5790 H       1  UNL1        0.0350
     44 H           0.8720   -4.7624   -2.2992 H       1  UNL1        0.0350
     45 H          -1.4843   -4.2827   -1.1446 H       1  UNL1        0.0581
     46 H           5.3853    2.9456    0.1138 H       1  UNL1        0.0620
     47 H           7.9410    2.3709    0.1276 H       1  UNL1        0.0615
     48 H           8.2756   -0.2172    0.0700 H       1  UNL1        0.0575
     49 H           5.8610   -1.0220    0.9176 H       1  UNL1        0.0356
     50 H           5.8851   -0.9630   -0.8750 H       1  UNL1        0.0356
@<TRIPOS>BOND
     1     1     2    1
     2     2     3    2
     3     3     4   ar
     4     4     5   ar
     5     5     6   ar
     6     6     7   ar
     7     7     8   ar
     8     8     9   ar
     9     9    10   ar
    10    10    11   ar
    11    11    12   ar
    12    12    13    2
    13     9    14   ar
    14    14    15   ar
    15    15    16   ar
    16    16    17   ar
    17    17    18   ar
    18    18    19   ar
    19    19    20   ar
    20    20    21   ar
    21    21    22   ar
    22    22    23   ar
    23    23    24    2
    24    24    25    1
    25    25    26    1
    26    26    27    2
    27    20    28    1
    28    28    29    2
    29    29    30    1
    30    30    31    2
    31    31    32    1
    32    13     1    1
    33    22    14   ar
    34    27    23   ar
    35    32    28    1
    36    12     3   ar
    37    19    15   ar
    38    11     6   ar
    39    27     8   ar
    40     1    33    1
    41     1    34    1
    42     2    35    1
    43     4    36    1
    44     5    37    1
    45     7    38    1
    46    10    39    1
    47    13    40    1
    48    21    41    1
    49    24    42    1
    50    25    43    1
    51    25    44    1
    52    26    45    1
    53    29    46    1
    54    30    47    1
    55    31    48    1
    56    32    49    1
    57    32    50    1
