@<TRIPOS>MOLECULE
*****
 50 57 0 0 0
SMALL
GASTEIGER

@<TRIPOS>ATOM
      1 C          -5.4673   -2.7567    2.4729 C.3     1  UNL1       -0.0148
      2 C          -6.4764   -1.8386    1.8442 C.2     1  UNL1       -0.0725
      3 C          -5.8420   -0.9501    1.0676 C.ar    1  UNL1       -0.0212
      4 C          -6.3969    0.1146    0.2746 C.ar    1  UNL1       -0.0537
      5 C          -5.5690    0.9001   -0.4393 C.ar    1  UNL1       -0.0534
      6 C          -4.0944    0.6994   -0.4328 C.ar    1  UNL1       -0.0167
      7 C          -3.2859    1.5479   -1.1947 C.ar    1  UNL1       -0.0456
      8 C          -1.8834    1.3701   -1.1991 C.ar    1  UNL1       -0.0071
      9 C          -0.9408    2.1405   -1.9128 C.ar    1  UNL1        0.0078
     10 C          -1.2018    3.2112   -2.7419 C.ar    1  UNL1        0.0100
     11 N           0.0062    3.6736   -3.2390 N.ar    1  UNL1       -0.3659
     12 C           1.0475    2.9177   -2.7421 C.ar    1  UNL1        0.0100
     13 C           0.4518    1.9914   -1.9390 C.ar    1  UNL1        0.0082
     14 C           1.0361    0.9462   -1.1651 C.ar    1  UNL1       -0.0005
     15 C           2.4084    0.6636   -1.0816 C.ar    1  UNL1       -0.0385
     16 C           2.6221   -0.4126   -0.2426 C.ar    1  UNL1        0.0211
     17 S           1.1475   -1.0292    0.3924 S.2     1  UNL1       -0.0876
     18 C           0.1682    0.1446   -0.4362 C.ar    1  UNL1        0.0283
     19 C          -1.2699    0.3304   -0.4335 C.ar    1  UNL1       -0.0023
     20 C          -2.1036   -0.5149    0.3287 C.ar    1  UNL1       -0.0446
     21 C          -3.4959   -0.3389    0.3340 C.ar    1  UNL1       -0.0098
     22 C          -4.4061   -1.1950    1.1134 C.ar    1  UNL1       -0.0141
     23 C          -4.1671   -2.2393    1.9235 C.2     1  UNL1       -0.0720
     24 C           3.8788   -1.0366    0.1340 C.ar    1  UNL1       -0.0021
     25 C           4.1810   -2.4151   -0.0127 C.ar    1  UNL1       -0.0529
     26 C           5.4429   -3.0081    0.3482 C.ar    1  UNL1       -0.0605
     27 C           6.5326   -2.2902    0.8924 C.ar    1  UNL1       -0.0526
     28 C           6.2129   -0.9458    1.0292 C.ar    1  UNL1        0.0000
     29 C           7.0355    0.0258    1.5372 C.ar    1  UNL1        0.0094
     30 N           6.3221    1.2055    1.5126 N.ar    1  UNL1       -0.3659
     31 C           5.0609    0.9926    0.9944 C.ar    1  UNL1        0.0100
     32 C           4.9676   -0.3412    0.6743 C.ar    1  UNL1        0.0076
     33 H          -5.6369   -3.7943    2.1709 H       1  UNL1        0.0350
     34 H          -5.4914   -2.6805    3.5639 H       1  UNL1        0.0350
     35 H          -7.5415   -1.8998    2.0046 H       1  UNL1        0.0581
     36 H          -7.4698    0.2679    0.2640 H       1  UNL1        0.0624
     37 H          -5.9680    1.7081   -1.0434 H       1  UNL1        0.0624
     38 H          -3.7316    2.3436   -1.7836 H       1  UNL1        0.0630
     39 H          -2.1224    3.6967   -3.0348 H       1  UNL1        0.0813
     40 H           0.1076    4.4533   -3.8760 H       1  UNL1        0.1648
     41 H           2.0735    3.1215   -3.0141 H       1  UNL1        0.0813
     42 H           3.2037    1.1918   -1.5913 H       1  UNL1        0.0635
     43 H          -1.6702   -1.3142    0.9224 H       1  UNL1        0.0630
     44 H          -3.2041   -2.6626    2.1617 H       1  UNL1        0.0581
     45 H           3.4208   -3.0750   -0.4326 H       1  UNL1        0.0624
     46 H           5.5619   -4.0805    0.1890 H       1  UNL1        0.0618
     47 H           7.4737   -2.7467    1.1622 H       1  UNL1        0.0624
     48 H           8.0466   -0.0011    1.9197 H       1  UNL1        0.0813
     49 H           6.6687    2.0981    1.8388 H       1  UNL1        0.1648
     50 H           4.3579    1.8108    0.9172 H       1  UNL1        0.0813
@<TRIPOS>BOND
     1     1     2    1
     2     2     3    2
     3     3     4   ar
     4     4     5   ar
     5     5     6   ar
     6     6     7   ar
     7     7     8   ar
     8     8     9   ar
     9     9    10   ar
    10    10    11   ar
    11    11    12   ar
    12    12    13   ar
    13    13    14   ar
    14    14    15   ar
    15    15    16   ar
    16    16    17   ar
    17    17    18   ar
    18    18    19   ar
    19    19    20   ar
    20    20    21   ar
    21    21    22   ar
    22    22    23    2
    23    16    24    1
    24    24    25   ar
    25    25    26   ar
    26    26    27   ar
    27    27    28   ar
    28    28    29   ar
    29    29    30   ar
    30    30    31   ar
    31    31    32   ar
    32    23     1    1
    33    32    24   ar
    34    22     3   ar
    35    32    28   ar
    36    21     6   ar
    37    19     8   ar
    38    13     9   ar
    39    18    14   ar
    40     1    33    1
    41     1    34    1
    42     2    35    1
    43     4    36    1
    44     5    37    1
    45     7    38    1
    46    10    39    1
    47    11    40    1
    48    12    41    1
    49    15    42    1
    50    20    43    1
    51    23    44    1
    52    25    45    1
    53    26    46    1
    54    27    47    1
    55    29    48    1
    56    30    49    1
    57    31    50    1
