@<TRIPOS>MOLECULE
*****
 47 53 0 0 0
SMALL
GASTEIGER

@<TRIPOS>ATOM
      1 C          -6.0830   -0.1008   -3.1321 C.3     1  UNL1       -0.0148
      2 C          -6.9673   -0.0482   -1.9191 C.2     1  UNL1       -0.0725
      3 C          -6.2071   -0.0805   -0.8164 C.ar    1  UNL1       -0.0212
      4 C          -6.6139   -0.0510    0.5633 C.ar    1  UNL1       -0.0537
      5 C          -5.6719   -0.0931    1.5241 C.ar    1  UNL1       -0.0534
      6 C          -4.2202   -0.1695    1.2007 C.ar    1  UNL1       -0.0162
      7 C          -3.2945   -0.2099    2.2522 C.ar    1  UNL1       -0.0397
      8 C          -1.9192   -0.2824    1.9524 C.ar    1  UNL1        0.0208
      9 S          -0.6074   -0.3415    3.1025 S.2     1  UNL1       -0.0885
     10 C           0.5146   -0.4073    1.8710 C.ar    1  UNL1        0.0171
     11 C           1.9219   -0.4791    1.8435 C.2     1  UNL1       -0.0436
     12 C           2.2718   -0.4967    0.5345 C.2     1  UNL1       -0.0342
     13 C           1.0493   -0.4523   -0.3962 C.3     1  UNL1       -0.0002
     14 C          -0.0412   -0.3883    0.6187 C.ar    1  UNL1       -0.0211
     15 C          -1.4551   -0.3152    0.6259 C.ar    1  UNL1       -0.0061
     16 C          -2.3996   -0.2735   -0.4252 C.ar    1  UNL1       -0.0449
     17 C          -3.7704   -0.2012   -0.1411 C.ar    1  UNL1       -0.0098
     18 C          -4.8009   -0.1549   -1.1914 C.ar    1  UNL1       -0.0141
     19 C          -4.7062   -0.1678   -2.5310 C.2     1  UNL1       -0.0720
     20 C           3.6344   -0.5903    0.0082 C.ar    1  UNL1       -0.0138
     21 C           3.9935   -1.7901   -0.6253 C.ar    1  UNL1       -0.0537
     22 C           5.2754   -1.9661   -1.1355 C.ar    1  UNL1       -0.0606
     23 C           6.2135   -0.9441   -1.0185 C.ar    1  UNL1       -0.0540
     24 C           5.8848    0.2692   -0.3954 C.ar    1  UNL1       -0.0173
     25 C           6.8444    1.2904   -0.2928 C.ar    1  UNL1       -0.0540
     26 C           6.5369    2.5078    0.3124 C.ar    1  UNL1       -0.0612
     27 C           5.2631    2.7220    0.8208 C.ar    1  UNL1       -0.0611
     28 C           4.2983    1.7163    0.7279 C.ar    1  UNL1       -0.0535
     29 C           4.5811    0.4654    0.1276 C.ar    1  UNL1       -0.0105
     30 H          -6.2928   -0.9897   -3.7344 H       1  UNL1        0.0350
     31 H          -6.2012    0.7975   -3.7451 H       1  UNL1        0.0350
     32 H          -8.0443    0.0070   -1.9499 H       1  UNL1        0.0581
     33 H          -7.6684    0.0046    0.8079 H       1  UNL1        0.0624
     34 H          -5.9578   -0.0718    2.5707 H       1  UNL1        0.0624
     35 H          -3.6209   -0.1863    3.2878 H       1  UNL1        0.0635
     36 H           2.5754   -0.5176    2.7024 H       1  UNL1        0.0632
     37 H           1.0642    0.4415   -1.0271 H       1  UNL1        0.0362
     38 H           0.9724   -1.3557   -1.0084 H       1  UNL1        0.0362
     39 H          -2.0486   -0.2979   -1.4521 H       1  UNL1        0.0630
     40 H          -3.7996   -0.2176   -3.1127 H       1  UNL1        0.0581
     41 H           3.2772   -2.6047   -0.7109 H       1  UNL1        0.0624
     42 H           5.5462   -2.9011   -1.6189 H       1  UNL1        0.0618
     43 H           7.2117   -1.1024   -1.4218 H       1  UNL1        0.0624
     44 H           7.8471    1.1443   -0.6893 H       1  UNL1        0.0624
     45 H           7.2910    3.2871    0.3825 H       1  UNL1        0.0618
     46 H           5.0140    3.6706    1.2893 H       1  UNL1        0.0618
     47 H           3.3092    1.9251    1.1297 H       1  UNL1        0.0624
@<TRIPOS>BOND
     1     1     2    1
     2     2     3    2
     3     3     4   ar
     4     4     5   ar
     5     5     6   ar
     6     6     7   ar
     7     7     8   ar
     8     8     9   ar
     9     9    10   ar
    10    10    11    1
    11    11    12    2
    12    12    13    1
    13    13    14    1
    14    14    15   ar
    15    15    16   ar
    16    16    17   ar
    17    17    18   ar
    18    18    19    2
    19    12    20    1
    20    20    21   ar
    21    21    22   ar
    22    22    23   ar
    23    23    24   ar
    24    24    25   ar
    25    25    26   ar
    26    26    27   ar
    27    27    28   ar
    28    28    29   ar
    29    19     1    1
    30    29    20   ar
    31    18     3   ar
    32    29    24   ar
    33    17     6   ar
    34    15     8   ar
    35    14    10   ar
    36     1    30    1
    37     1    31    1
    38     2    32    1
    39     4    33    1
    40     5    34    1
    41     7    35    1
    42    11    36    1
    43    13    37    1
    44    13    38    1
    45    16    39    1
    46    19    40    1
    47    21    41    1
    48    22    42    1
    49    23    43    1
    50    25    44    1
    51    26    45    1
    52    27    46    1
    53    28    47    1
