@<TRIPOS>MOLECULE
*****
 48 54 0 0 0
SMALL
GASTEIGER

@<TRIPOS>ATOM
      1 C          -6.7788   -0.0227    1.7161 C.3     1  UNL1       -0.0148
      2 C          -7.1322   -0.6679    0.4156 C.2     1  UNL1       -0.0725
      3 C          -6.0255   -0.7897   -0.3290 C.ar    1  UNL1       -0.0212
      4 C          -5.9388   -1.2648   -1.6793 C.ar    1  UNL1       -0.0537
      5 C          -4.7557   -1.2069   -2.3095 C.ar    1  UNL1       -0.0534
      6 C          -3.5270   -0.7155   -1.6322 C.ar    1  UNL1       -0.0166
      7 C          -2.3529   -0.6804   -2.3944 C.ar    1  UNL1       -0.0534
      8 C          -1.1522   -0.2846   -1.8196 C.ar    1  UNL1       -0.0514
      9 C          -1.1053    0.0356   -0.4523 C.ar    1  UNL1        0.0096
     10 C           0.1259    0.3897    0.1453 C.ar    1  UNL1        0.0732
     11 N           1.3990    0.5440   -0.3550 N.ar    1  UNL1       -0.3524
     12 C           2.2815    0.8907    0.6449 C.ar    1  UNL1        0.0496
     13 C           1.5472    0.9837    1.8122 C.ar    1  UNL1       -0.0103
     14 C           0.2059    0.6602    1.5054 C.ar    1  UNL1        0.0896
     15 N          -0.8563    0.5934    2.3345 N.ar    1  UNL1       -0.2528
     16 C          -2.0260    0.2576    1.7303 C.ar    1  UNL1        0.0367
     17 C          -2.2610   -0.0016    0.3644 C.ar    1  UNL1        0.0105
     18 C          -3.5134   -0.3229   -0.2530 C.ar    1  UNL1       -0.0013
     19 C          -4.8555   -0.2921    0.4002 C.ar    1  UNL1       -0.0135
     20 C          -5.2988    0.1993    1.5726 C.2     1  UNL1       -0.0719
     21 C           3.7001    1.1374    0.3854 C.ar    1  UNL1        0.0061
     22 C           4.1707    2.4483    0.5577 C.ar    1  UNL1       -0.0520
     23 C           5.4960    2.7675    0.2824 C.ar    1  UNL1       -0.0605
     24 C           6.3664    1.7788   -0.1686 C.ar    1  UNL1       -0.0540
     25 C           5.9309    0.4556   -0.3381 C.ar    1  UNL1       -0.0173
     26 C           6.8285   -0.5291   -0.7843 C.ar    1  UNL1       -0.0540
     27 C           6.4231   -1.8534   -0.9424 C.ar    1  UNL1       -0.0612
     28 C           5.1149   -2.2132   -0.6491 C.ar    1  UNL1       -0.0611
     29 C           4.2097   -1.2457   -0.2073 C.ar    1  UNL1       -0.0534
     30 C           4.5851    0.1113   -0.0521 C.ar    1  UNL1       -0.0088
     31 H          -6.9996   -0.6806    2.5615 H       1  UNL1        0.0350
     32 H          -7.3066    0.9276    1.8399 H       1  UNL1        0.0350
     33 H          -8.1341   -0.9379    0.1198 H       1  UNL1        0.0581
     34 H          -6.8286   -1.6298   -2.1794 H       1  UNL1        0.0624
     35 H          -4.6741   -1.5421   -3.3385 H       1  UNL1        0.0624
     36 H          -2.3645   -0.9625   -3.4447 H       1  UNL1        0.0624
     37 H          -0.2620   -0.2616   -2.4409 H       1  UNL1        0.0624
     38 H           1.6614    0.4252   -1.3230 H       1  UNL1        0.1660
     39 H           1.9321    1.2435    2.7886 H       1  UNL1        0.0660
     40 H          -2.8210    0.1584    2.4580 H       1  UNL1        0.0836
     41 H          -4.7446    0.7203    2.3331 H       1  UNL1        0.0581
     42 H           3.4965    3.2318    0.8983 H       1  UNL1        0.0624
     43 H           5.8496    3.7865    0.4152 H       1  UNL1        0.0618
     44 H           7.3988    2.0497   -0.3812 H       1  UNL1        0.0624
     45 H           7.8615   -0.2702   -1.0079 H       1  UNL1        0.0624
     46 H           7.1324   -2.6028   -1.2832 H       1  UNL1        0.0618
     47 H           4.7964   -3.2472   -0.7533 H       1  UNL1        0.0618
     48 H           3.2009   -1.5710    0.0383 H       1  UNL1        0.0624
@<TRIPOS>BOND
     1     1     2    1
     2     2     3    2
     3     3     4   ar
     4     4     5   ar
     5     5     6   ar
     6     6     7   ar
     7     7     8   ar
     8     8     9   ar
     9     9    10   ar
    10    10    11   ar
    11    11    12   ar
    12    12    13   ar
    13    13    14   ar
    14    14    15   ar
    15    15    16   ar
    16    16    17   ar
    17    17    18   ar
    18    18    19   ar
    19    19    20    2
    20    12    21    1
    21    21    22   ar
    22    22    23   ar
    23    23    24   ar
    24    24    25   ar
    25    25    26   ar
    26    26    27   ar
    27    27    28   ar
    28    28    29   ar
    29    29    30   ar
    30    20     1    1
    31    30    21   ar
    32    19     3   ar
    33    30    25   ar
    34    18     6   ar
    35    17     9   ar
    36    14    10   ar
    37     1    31    1
    38     1    32    1
    39     2    33    1
    40     4    34    1
    41     5    35    1
    42     7    36    1
    43     8    37    1
    44    11    38    1
    45    13    39    1
    46    16    40    1
    47    20    41    1
    48    22    42    1
    49    23    43    1
    50    24    44    1
    51    26    45    1
    52    27    46    1
    53    28    47    1
    54    29    48    1
