@<TRIPOS>MOLECULE
*****
 46 53 0 0 0
SMALL
GASTEIGER

@<TRIPOS>ATOM
      1 C          -5.7658    2.6883    0.1112 C.3     1  UNL1        0.0000
      2 C          -6.5958    1.4485    0.0036 C.2     1  UNL1        0.0000
      3 C          -5.7838    0.3875   -0.0946 C.ar    1  UNL1        0.0000
      4 C          -6.1565   -0.9688   -0.3728 C.ar    1  UNL1        0.0000
      5 C          -5.1850   -1.8564   -0.6367 C.ar    1  UNL1        0.0000
      6 C          -3.7455   -1.4891   -0.5656 C.ar    1  UNL1        0.0000
      7 C          -2.8204   -2.4623   -0.9337 C.ar    1  UNL1        0.0000
      8 C          -1.4543   -2.2143   -0.8320 C.ar    1  UNL1        0.0000
      9 C          -0.9479   -1.0301   -0.2690 C.ar    1  UNL1        0.0000
     10 C           0.4599   -0.8539   -0.1271 C.ar    1  UNL1        0.0000
     11 SI          1.9127   -1.9777   -0.6990 Si      1  UNL1        0.0000
     12 C           3.1402   -0.7617    0.0344 C.2     1  UNL1        0.0000
     13 C           2.5319    0.3001    0.5995 C.2     1  UNL1        0.0000
     14 C           1.0686    0.2525    0.5180 C.ar    1  UNL1        0.0000
     15 C           0.2141    1.2106    1.0840 C.ar    1  UNL1        0.0000
     16 N           0.5890    2.2926    1.7877 N.ar    1  UNL1        0.0000
     17 S          -0.7995    3.0249    2.2997 S.2     1  UNL1        0.0000
     18 N          -1.9282    2.0262    1.6300 N.ar    1  UNL1        0.0000
     19 C          -1.2902    1.0689    0.9321 C.ar    1  UNL1        0.0000
     20 C          -1.8943   -0.0285    0.1734 C.ar    1  UNL1        0.0000
     21 C          -3.2966   -0.2164   -0.1006 C.ar    1  UNL1        0.0000
     22 C          -4.3823    0.7996    0.0078 C.ar    1  UNL1        0.0000
     23 C          -4.3689    2.1439    0.0418 C.2     1  UNL1        0.0000
     24 C           4.5482   -0.9081   -0.0336 C.ar    1  UNL1        0.0000
     25 S           5.3487   -2.4649    0.1430 S.2     1  UNL1        0.0000
     26 C           6.9458   -1.8155   -0.0271 C.ar    1  UNL1        0.0000
     27 C           6.8314   -0.4862   -0.2020 C.ar    1  UNL1        0.0000
     28 N           7.8487    0.4061   -0.3751 N.ar    1  UNL1        0.0000
     29 C           7.1420    1.5994   -0.5058 C.ar    1  UNL1        0.0000
     30 C           5.7494    1.3907   -0.4086 C.ar    1  UNL1        0.0000
     31 C           5.5441   -0.0007   -0.2025 C.ar    1  UNL1        0.0000
     32 H          -5.9632    3.3647   -0.7257 H       1  UNL1        0.0000
     33 H          -5.9431    3.2089    1.0566 H       1  UNL1        0.0000
     34 H          -7.6722    1.4386   -0.0664 H       1  UNL1        0.0000
     35 H          -7.2041   -1.2425   -0.4185 H       1  UNL1        0.0000
     36 H          -5.4405   -2.8816   -0.8841 H       1  UNL1        0.0000
     37 H          -3.1508   -3.4254   -1.3170 H       1  UNL1        0.0000
     38 H          -0.7951   -3.0126   -1.1656 H       1  UNL1        0.0000
     39 H           1.8591   -3.2875    0.0005 H       1  UNL1        0.0000
     40 H           1.9601   -2.0579   -2.1817 H       1  UNL1        0.0000
     41 H           3.0342    1.1287    1.0838 H       1  UNL1        0.0000
     42 H          -3.5071    2.7883    0.0041 H       1  UNL1        0.0000
     43 H           7.8326   -2.4318    0.0131 H       1  UNL1        0.0000
     44 H           8.8441    0.2222   -0.3984 H       1  UNL1        0.0000
     45 H           7.6906    2.5196   -0.6615 H       1  UNL1        0.0000
     46 H           4.9957    2.1634   -0.4832 H       1  UNL1        0.0000
@<TRIPOS>BOND
     1     1     2    1
     2     2     3    2
     3     3     4   ar
     4     4     5   ar
     5     5     6   ar
     6     6     7   ar
     7     7     8   ar
     8     8     9   ar
     9     9    10   ar
    10    10    11    1
    11    11    12    1
    12    12    13    2
    13    13    14    1
    14    14    15   ar
    15    15    16   ar
    16    16    17   ar
    17    17    18   ar
    18    18    19   ar
    19    19    20   ar
    20    20    21   ar
    21    21    22   ar
    22    22    23    2
    23    12    24    1
    24    24    25   ar
    25    25    26   ar
    26    26    27   ar
    27    27    28   ar
    28    28    29   ar
    29    29    30   ar
    30    30    31   ar
    31    23     1    1
    32    31    24   ar
    33    22     3   ar
    34    31    27   ar
    35    21     6   ar
    36    20     9   ar
    37    14    10   ar
    38    19    15   ar
    39     1    32    1
    40     1    33    1
    41     2    34    1
    42     4    35    1
    43     5    36    1
    44     7    37    1
    45     8    38    1
    46    11    39    1
    47    11    40    1
    48    13    41    1
    49    23    42    1
    50    26    43    1
    51    28    44    1
    52    29    45    1
    53    30    46    1
