@<TRIPOS>MOLECULE
*****
 50 57 0 0 0
SMALL
GASTEIGER

@<TRIPOS>ATOM
      1 C          -5.4498   -1.7726   -2.5475 C.3     1  UNL1       -0.0148
      2 C          -6.4748   -1.2343   -1.5970 C.2     1  UNL1       -0.0725
      3 C          -5.8526   -0.5859   -0.6034 C.ar    1  UNL1       -0.0212
      4 C          -6.4288   -0.0592    0.6013 C.ar    1  UNL1       -0.0537
      5 C          -5.6032    0.3537    1.5777 C.ar    1  UNL1       -0.0534
      6 C          -4.1259    0.3504    1.4067 C.ar    1  UNL1       -0.0167
      7 C          -3.3338    0.6681    2.5020 C.ar    1  UNL1       -0.0534
      8 C          -1.9403    0.6970    2.3851 C.ar    1  UNL1       -0.0528
      9 C          -1.2513    0.5295    1.1622 C.ar    1  UNL1       -0.0089
     10 C           0.2282    0.5910    1.1090 C.ar    1  UNL1       -0.0095
     11 C           1.0469    0.6492    2.2657 C.ar    1  UNL1       -0.0528
     12 C           2.4511    0.7000    2.2243 C.ar    1  UNL1       -0.0529
     13 C           3.1328    0.6983    1.0108 C.ar    1  UNL1       -0.0104
     14 C           2.3809    0.6422   -0.1614 C.ar    1  UNL1       -0.0452
     15 C           0.9590    0.5884   -0.1191 C.ar    1  UNL1       -0.0085
     16 C           0.1104    0.5760   -1.2523 C.ar    1  UNL1       -0.0025
     17 C           0.5737    0.6927   -2.5455 C.ar    1  UNL1       -0.0160
     18 S          -0.7052    0.8096   -3.6764 S.2     1  UNL1       -0.1038
     19 C          -1.8792    0.7090   -2.4341 C.ar    1  UNL1       -0.0160
     20 C          -1.3275    0.4638   -1.1944 C.ar    1  UNL1       -0.0020
     21 C          -2.0950    0.3235    0.0062 C.ar    1  UNL1       -0.0008
     22 C          -3.5056    0.0673    0.1619 C.ar    1  UNL1       -0.0022
     23 C          -4.4093   -0.5669   -0.8344 C.ar    1  UNL1       -0.0135
     24 C          -4.1616   -1.3252   -1.9176 C.2     1  UNL1       -0.0719
     25 C           4.5940    0.7311    0.9522 C.ar    1  UNL1        0.0234
     26 S           5.4842    1.9510    1.8082 S.2     1  UNL1       -0.0958
     27 C           7.0138    1.3646    1.2595 C.ar    1  UNL1       -0.0163
     28 C           6.8188    0.2846    0.4558 C.ar    1  UNL1       -0.0142
     29 C           7.6477   -0.6068   -0.2682 C.2     1  UNL1       -0.0574
     30 C           6.8734   -1.5194   -0.8986 C.2     1  UNL1       -0.0791
     31 C           5.3859   -1.2777   -0.6183 C.3     1  UNL1       -0.0075
     32 C           5.4657   -0.0810    0.2698 C.ar    1  UNL1       -0.0217
     33 H          -5.5703   -1.3485   -3.5485 H       1  UNL1        0.0350
     34 H          -5.5003   -2.8642   -2.5998 H       1  UNL1        0.0350
     35 H          -7.5342   -1.4256   -1.6693 H       1  UNL1        0.0581
     36 H          -7.5051   -0.0538    0.7274 H       1  UNL1        0.0624
     37 H          -6.0075    0.7224    2.5147 H       1  UNL1        0.0624
     38 H          -3.7823    0.8693    3.4723 H       1  UNL1        0.0624
     39 H          -1.4026    0.9176    3.3036 H       1  UNL1        0.0624
     40 H           0.6104    0.6323    3.2607 H       1  UNL1        0.0624
     41 H           3.0001    0.7260    3.1638 H       1  UNL1        0.0624
     42 H           2.8999    0.6545   -1.1153 H       1  UNL1        0.0630
     43 H           1.5880    0.7654   -2.9094 H       1  UNL1        0.0700
     44 H          -2.9155    0.8439   -2.7059 H       1  UNL1        0.0700
     45 H          -3.1939   -1.6158   -2.2956 H       1  UNL1        0.0581
     46 H           7.9340    1.8445    1.5604 H       1  UNL1        0.0699
     47 H           8.7269   -0.5583   -0.3030 H       1  UNL1        0.0621
     48 H           7.2383   -2.3220   -1.5221 H       1  UNL1        0.0575
     49 H           4.9423   -2.1360   -0.1063 H       1  UNL1        0.0356
     50 H           4.8489   -1.0637   -1.5464 H       1  UNL1        0.0356
@<TRIPOS>BOND
     1     1     2    1
     2     2     3    2
     3     3     4   ar
     4     4     5   ar
     5     5     6   ar
     6     6     7   ar
     7     7     8   ar
     8     8     9   ar
     9     9    10   ar
    10    10    11   ar
    11    11    12   ar
    12    12    13   ar
    13    13    14   ar
    14    14    15   ar
    15    15    16   ar
    16    16    17   ar
    17    17    18   ar
    18    18    19   ar
    19    19    20   ar
    20    20    21   ar
    21    21    22   ar
    22    22    23   ar
    23    23    24    2
    24    13    25    1
    25    25    26   ar
    26    26    27   ar
    27    27    28   ar
    28    28    29    1
    29    29    30    2
    30    30    31    1
    31    31    32    1
    32    24     1    1
    33    32    25   ar
    34    23     3   ar
    35    32    28   ar
    36    22     6   ar
    37    21     9   ar
    38    15    10   ar
    39    20    16   ar
    40     1    33    1
    41     1    34    1
    42     2    35    1
    43     4    36    1
    44     5    37    1
    45     7    38    1
    46     8    39    1
    47    11    40    1
    48    12    41    1
    49    14    42    1
    50    17    43    1
    51    19    44    1
    52    24    45    1
    53    27    46    1
    54    29    47    1
    55    30    48    1
    56    31    49    1
    57    31    50    1
