@<TRIPOS>MOLECULE
*****
 44 50 0 0 0
SMALL
GASTEIGER

@<TRIPOS>ATOM
      1 SI          1.2449    3.5431    0.9973 Si      1  UNL1        0.0000
      2 C           2.1872    1.9430    0.9306 C.2     1  UNL1        0.0000
      3 C           1.3777    0.8929    0.6756 C.ar    1  UNL1        0.0000
      4 C           1.8361   -0.4909    0.5670 C.ar    1  UNL1        0.0000
      5 C           0.9151   -1.4454    0.3221 C.ar    1  UNL1        0.0000
      6 C          -0.5240   -1.1486    0.1692 C.ar    1  UNL1        0.0000
      7 C          -1.3982   -2.1927   -0.0702 C.ar    1  UNL1        0.0000
      8 N          -2.7235   -2.0373   -0.2346 N.ar    1  UNL1        0.0000
      9 C          -3.2403   -0.7904   -0.1623 C.ar    1  UNL1        0.0000
     10 C          -4.6250   -0.6106   -0.3325 C.ar    1  UNL1        0.0000
     11 C          -5.5094   -1.6682   -0.5753 C.ar    1  UNL1        0.0000
     12 N          -6.8506   -1.5420   -0.7460 N.ar    1  UNL1        0.0000
     13 C          -7.3578   -0.2972   -0.6732 C.ar    1  UNL1        0.0000
     14 C          -6.5882    0.8273   -0.4385 C.ar    1  UNL1        0.0000
     15 C          -5.2054    0.6644   -0.2668 C.ar    1  UNL1        0.0000
     16 C          -4.3530    1.7263   -0.0285 C.ar    1  UNL1        0.0000
     17 N          -3.0218    1.5944    0.1393 N.ar    1  UNL1        0.0000
     18 C          -2.4519    0.3625    0.0785 C.ar    1  UNL1        0.0000
     19 C          -1.0614    0.1592    0.2474 C.ar    1  UNL1        0.0000
     20 C          -0.0612    1.2430    0.5155 C.ar    1  UNL1        0.0000
     21 C          -0.3020    2.5654    0.6479 C.2     1  UNL1        0.0000
     22 C           3.1988   -0.9155    0.6553 C.ar    1  UNL1        0.0000
     23 S           3.8080   -1.6705    2.0998 S.2     1  UNL1        0.0000
     24 C           5.4012   -1.8515    1.4556 C.ar    1  UNL1        0.0000
     25 C           5.4692   -1.3479    0.1859 C.ar    1  UNL1        0.0000
     26 C           6.5633   -1.2726   -0.7327 C.2     1  UNL1        0.0000
     27 C           6.2682   -0.6994   -1.9203 C.2     1  UNL1        0.0000
     28 SI          4.4284   -0.1543   -1.9962 Si      1  UNL1        0.0000
     29 C           4.2232   -0.8240   -0.2451 C.ar    1  UNL1        0.0000
     30 H           1.6049    4.4562   -0.1145 H       1  UNL1        0.0000
     31 H           1.2465    4.1504    2.3500 H       1  UNL1        0.0000
     32 H           3.2536    1.9223    1.0934 H       1  UNL1        0.0000
     33 H           1.2153   -2.4861    0.2204 H       1  UNL1        0.0000
     34 H          -1.0541   -3.2216   -0.1412 H       1  UNL1        0.0000
     35 H          -5.1489   -2.6934   -0.6424 H       1  UNL1        0.0000
     36 H          -8.4326   -0.2248   -0.8128 H       1  UNL1        0.0000
     37 H          -7.0582    1.8040   -0.3913 H       1  UNL1        0.0000
     38 H          -4.7174    2.7482    0.0381 H       1  UNL1        0.0000
     39 H          -1.2445    3.0821    0.5836 H       1  UNL1        0.0000
     40 H           6.1784   -2.3106    2.0500 H       1  UNL1        0.0000
     41 H           7.5489   -1.6496   -0.4847 H       1  UNL1        0.0000
     42 H           6.9261   -0.5360   -2.7584 H       1  UNL1        0.0000
     43 H           3.7006   -0.9268   -3.0341 H       1  UNL1        0.0000
     44 H           4.3336    1.3234   -2.1027 H       1  UNL1        0.0000
@<TRIPOS>BOND
     1     1     2    1
     2     2     3    2
     3     3     4   ar
     4     4     5   ar
     5     5     6   ar
     6     6     7   ar
     7     7     8   ar
     8     8     9   ar
     9     9    10   ar
    10    10    11   ar
    11    11    12   ar
    12    12    13   ar
    13    13    14   ar
    14    14    15   ar
    15    15    16   ar
    16    16    17   ar
    17    17    18   ar
    18    18    19   ar
    19    19    20   ar
    20    20    21    2
    21     4    22    1
    22    22    23   ar
    23    23    24   ar
    24    24    25   ar
    25    25    26    1
    26    26    27    2
    27    27    28    1
    28    28    29    1
    29    21     1    1
    30    29    22   ar
    31    20     3   ar
    32    29    25   ar
    33    19     6   ar
    34    18     9   ar
    35    15    10   ar
    36     1    30    1
    37     1    31    1
    38     2    32    1
    39     5    33    1
    40     7    34    1
    41    11    35    1
    42    13    36    1
    43    14    37    1
    44    16    38    1
    45    21    39    1
    46    24    40    1
    47    26    41    1
    48    27    42    1
    49    28    43    1
    50    28    44    1
