@<TRIPOS>MOLECULE
*****
 41 46 0 0 0
SMALL
GASTEIGER

@<TRIPOS>ATOM
      1 C           4.7126    3.1211   -0.8559 C.3     1  UNL1        0.0000
      2 C           5.7711    2.0984   -0.5899 C.2     1  UNL1        0.0000
      3 C           5.1888    0.9337   -0.2751 C.ar    1  UNL1        0.0000
      4 C           5.8360   -0.3067    0.0517 C.ar    1  UNL1        0.0000
      5 C           5.0833   -1.3804    0.3433 C.ar    1  UNL1        0.0000
      6 C           3.5983   -1.3218    0.3375 C.ar    1  UNL1        0.0000
      7 C           2.8983   -2.4798    0.6513 C.ar    1  UNL1        0.0000
      8 C           1.5056   -2.4751    0.6592 C.ar    1  UNL1        0.0000
      9 C           0.7676   -1.3026    0.3512 C.ar    1  UNL1        0.0000
     10 C          -0.6756   -1.1229    0.3123 C.ar    1  UNL1        0.0000
     11 C          -1.7267   -2.0419    0.5666 C.ar    1  UNL1        0.0000
     12 C          -3.0661   -1.6461    0.4685 C.ar    1  UNL1        0.0000
     13 C          -3.3964   -0.3409    0.1140 C.ar    1  UNL1        0.0000
     14 C          -2.3733    0.5848   -0.1306 C.ar    1  UNL1        0.0000
     15 C          -1.0266    0.1766   -0.0309 C.ar    1  UNL1        0.0000
     16 S           0.3555    1.1398   -0.2960 S.2     1  UNL1        0.0000
     17 C           1.4754   -0.1300    0.0339 C.ar    1  UNL1        0.0000
     18 C           2.8986   -0.1178    0.0209 C.ar    1  UNL1        0.0000
     19 C           3.7292    1.0686   -0.3013 C.ar    1  UNL1        0.0000
     20 C           3.4476    2.3400   -0.6390 C.2     1  UNL1        0.0000
     21 C          -4.7890    0.0816    0.0168 C.2     1  UNL1        0.0000
     22 C          -5.3999    1.0199    0.7702 C.2     1  UNL1        0.0000
     23 C          -6.8001    1.2570    0.4533 C.2     1  UNL1        0.0000
     24 C          -7.2954    0.5132   -0.5526 C.2     1  UNL1        0.0000
     25 SI         -5.9855   -0.6386   -1.2609 Si      1  UNL1        0.0000
     26 H           4.7842    3.9567   -0.1536 H       1  UNL1        0.0000
     27 H           4.7727    3.4951   -1.8822 H       1  UNL1        0.0000
     28 H           6.8317    2.2871   -0.6474 H       1  UNL1        0.0000
     29 H           6.9188   -0.3587    0.0585 H       1  UNL1        0.0000
     30 H           5.5568   -2.3244    0.5922 H       1  UNL1        0.0000
     31 H           3.4218   -3.4014    0.8939 H       1  UNL1        0.0000
     32 H           0.9790   -3.3937    0.9080 H       1  UNL1        0.0000
     33 H          -1.4974   -3.0669    0.8467 H       1  UNL1        0.0000
     34 H          -3.8433   -2.3754    0.6878 H       1  UNL1        0.0000
     35 H          -2.6092    1.6108   -0.4027 H       1  UNL1        0.0000
     36 H           2.4796    2.7954   -0.7542 H       1  UNL1        0.0000
     37 H          -4.9138    1.5733    1.5651 H       1  UNL1        0.0000
     38 H          -7.3787    1.9875    1.0055 H       1  UNL1        0.0000
     39 H          -8.3005    0.5334   -0.9427 H       1  UNL1        0.0000
     40 H          -6.3030   -2.0665   -1.0040 H       1  UNL1        0.0000
     41 H          -5.6320   -0.2822   -2.6576 H       1  UNL1        0.0000
@<TRIPOS>BOND
     1     1     2    1
     2     2     3    2
     3     3     4   ar
     4     4     5   ar
     5     5     6   ar
     6     6     7   ar
     7     7     8   ar
     8     8     9   ar
     9     9    10   ar
    10    10    11   ar
    11    11    12   ar
    12    12    13   ar
    13    13    14   ar
    14    14    15   ar
    15    15    16   ar
    16    16    17   ar
    17    17    18   ar
    18    18    19   ar
    19    19    20    2
    20    13    21    1
    21    21    22    2
    22    22    23    1
    23    23    24    2
    24    24    25    1
    25    20     1    1
    26    25    21    1
    27    19     3   ar
    28    18     6   ar
    29    17     9   ar
    30    15    10   ar
    31     1    26    1
    32     1    27    1
    33     2    28    1
    34     4    29    1
    35     5    30    1
    36     7    31    1
    37     8    32    1
    38    11    33    1
    39    12    34    1
    40    14    35    1
    41    20    36    1
    42    22    37    1
    43    23    38    1
    44    24    39    1
    45    25    40    1
    46    25    41    1
