@<TRIPOS>MOLECULE
*****
 41 47 0 0 0
SMALL
GASTEIGER

@<TRIPOS>ATOM
      1 C          -5.2605   -0.5936    1.8889 C.3     1  UNL1       -0.0148
      2 C          -5.8848    0.2758    0.8438 C.2     1  UNL1       -0.0725
      3 C          -4.9221    0.7637    0.0503 C.ar    1  UNL1       -0.0212
      4 C          -5.0599    1.7573   -0.9744 C.ar    1  UNL1       -0.0537
      5 C          -3.9459    2.2674   -1.5225 C.ar    1  UNL1       -0.0534
      6 C          -2.5936    1.7716   -1.1541 C.ar    1  UNL1       -0.0166
      7 C          -1.4991    2.4160   -1.7171 C.ar    1  UNL1       -0.0534
      8 C          -0.2039    1.9667   -1.4611 C.ar    1  UNL1       -0.0527
      9 C           0.0767    0.8012   -0.7177 C.ar    1  UNL1       -0.0059
     10 C           1.4582    0.3619   -0.5354 C.ar    1  UNL1        0.0102
     11 C           2.5992    1.0777   -0.9425 C.ar    1  UNL1        0.0367
     12 N           3.8956    0.6987   -0.7879 N.ar    1  UNL1       -0.2523
     13 C           4.1511   -0.4838   -0.1857 C.ar    1  UNL1        0.0965
     14 C           3.1219   -1.2943    0.2600 C.ar    1  UNL1       -0.0238
     15 C           1.7867   -0.8632    0.0856 C.ar    1  UNL1        0.0144
     16 C           0.6954   -1.6774    0.4999 C.ar    1  UNL1        0.1083
     17 N           0.8074   -2.9022    1.0481 N.ar    1  UNL1       -0.1901
     18 S          -0.7247   -3.4723    1.2666 S.2     1  UNL1        0.1165
     19 N          -1.5902   -2.1868    0.7109 N.ar    1  UNL1       -0.1901
     20 C          -0.7320   -1.2161    0.3494 C.ar    1  UNL1        0.1088
     21 C          -1.0656    0.0885   -0.1913 C.ar    1  UNL1        0.0192
     22 C          -2.3890    0.6532   -0.2970 C.ar    1  UNL1       -0.0006
     23 C          -3.6156    0.2257    0.4349 C.ar    1  UNL1       -0.0134
     24 C          -3.8003   -0.4957    1.5549 C.2     1  UNL1       -0.0719
     25 C           5.5819   -0.8303   -0.0660 C.ar    1  UNL1        0.1264
     26 N           6.5360   -0.4206   -0.8854 N.ar    1  UNL1       -0.2458
     27 C           7.7630   -0.9047   -0.4829 C.ar    1  UNL1        0.0355
     28 C           7.7499   -1.6864    0.6488 C.ar    1  UNL1       -0.0042
     29 S           6.1488   -1.8200    1.2371 S.2     1  UNL1       -0.0742
     30 H          -5.4586   -0.2033    2.8916 H       1  UNL1        0.0350
     31 H          -5.6163   -1.6254    1.8172 H       1  UNL1        0.0350
     32 H          -6.9338    0.5243    0.8033 H       1  UNL1        0.0581
     33 H          -6.0447    2.1160   -1.2501 H       1  UNL1        0.0624
     34 H          -4.0195    3.0452   -2.2758 H       1  UNL1        0.0624
     35 H          -1.6349    3.2875   -2.3545 H       1  UNL1        0.0624
     36 H           0.5886    2.5495   -1.9250 H       1  UNL1        0.0624
     37 H           2.5257    2.0474   -1.4267 H       1  UNL1        0.0836
     38 H           3.3252   -2.2559    0.7217 H       1  UNL1        0.0646
     39 H          -3.0418   -0.9441    2.1740 H       1  UNL1        0.0581
     40 H           8.6449   -0.6520   -1.0588 H       1  UNL1        0.0835
     41 H           8.5806   -2.1672    1.1444 H       1  UNL1        0.0709
@<TRIPOS>BOND
     1     1     2    1
     2     2     3    2
     3     3     4   ar
     4     4     5   ar
     5     5     6   ar
     6     6     7   ar
     7     7     8   ar
     8     8     9   ar
     9     9    10   ar
    10    10    11   ar
    11    11    12   ar
    12    12    13   ar
    13    13    14   ar
    14    14    15   ar
    15    15    16   ar
    16    16    17   ar
    17    17    18   ar
    18    18    19   ar
    19    19    20   ar
    20    20    21   ar
    21    21    22   ar
    22    22    23   ar
    23    23    24    2
    24    13    25    1
    25    25    26   ar
    26    26    27   ar
    27    27    28   ar
    28    28    29   ar
    29    24     1    1
    30    29    25   ar
    31    23     3   ar
    32    22     6   ar
    33    21     9   ar
    34    15    10   ar
    35    20    16   ar
    36     1    30    1
    37     1    31    1
    38     2    32    1
    39     4    33    1
    40     5    34    1
    41     7    35    1
    42     8    36    1
    43    11    37    1
    44    14    38    1
    45    24    39    1
    46    27    40    1
    47    28    41    1
