@<TRIPOS>MOLECULE
*****
 48 55 0 0 0
SMALL
GASTEIGER

@<TRIPOS>ATOM
      1 C          -6.3641    1.3613    1.4852 C.3     1  UNL1       -0.0148
      2 C          -6.8553   -0.0352    1.6975 C.2     1  UNL1       -0.0725
      3 C          -5.8442   -0.8894    1.4908 C.ar    1  UNL1       -0.0212
      4 C          -5.9140   -2.3206    1.4362 C.ar    1  UNL1       -0.0537
      5 C          -4.8325   -2.9972    1.0194 C.ar    1  UNL1       -0.0534
      6 C          -3.5538   -2.3106    0.6965 C.ar    1  UNL1       -0.0166
      7 C          -2.5148   -3.0947    0.2054 C.ar    1  UNL1       -0.0534
      8 C          -1.2689   -2.5300   -0.0560 C.ar    1  UNL1       -0.0513
      9 C          -0.9594   -1.1919    0.2423 C.ar    1  UNL1        0.0109
     10 C           0.3772   -0.7530   -0.0157 C.ar    1  UNL1        0.0809
     11 N           1.2724   -1.5771   -0.6070 N.ar    1  UNL1       -0.2537
     12 C           2.5388   -1.1496   -0.8567 C.ar    1  UNL1        0.0360
     13 C           3.0259    0.1126   -0.5529 C.ar    1  UNL1        0.0015
     14 C           2.1271    0.9693    0.0726 C.ar    1  UNL1       -0.0412
     15 C           0.8057    0.5415    0.3399 C.ar    1  UNL1        0.0297
     16 C          -0.1346    1.3747    1.0082 C.ar    1  UNL1        0.1097
     17 N           0.1168    2.6114    1.4777 N.ar    1  UNL1       -0.1901
     18 S          -1.2526    3.1199    2.2445 S.2     1  UNL1        0.1165
     19 N          -2.2239    1.8136    1.9928 N.ar    1  UNL1       -0.1901
     20 C          -1.5464    0.9123    1.2608 C.ar    1  UNL1        0.1089
     21 C          -2.0167   -0.3799    0.8025 C.ar    1  UNL1        0.0206
     22 C          -3.3519   -0.9147    0.9115 C.ar    1  UNL1       -0.0006
     23 C          -4.6062   -0.1626    1.2002 C.ar    1  UNL1       -0.0134
     24 C          -4.9260    1.1409    1.1152 C.2     1  UNL1       -0.0719
     25 C           4.3956    0.5095   -0.8398 C.ar    1  UNL1       -0.0082
     26 C           5.3395    0.8549    0.1650 C.ar    1  UNL1       -0.0534
     27 C           6.6963    1.2360   -0.0936 C.ar    1  UNL1       -0.0606
     28 C           7.2574    1.3185   -1.3841 C.ar    1  UNL1       -0.0535
     29 C           6.3311    0.9915   -2.3734 C.ar    1  UNL1       -0.0103
     30 C           6.6488    1.0150   -3.7089 C.ar    1  UNL1       -0.0166
     31 S           5.2965    0.5874   -4.6778 S.2     1  UNL1       -0.1039
     32 C           4.2839    0.3747   -3.3033 C.ar    1  UNL1       -0.0160
     33 C           4.9610    0.6041   -2.1267 C.ar    1  UNL1       -0.0031
     34 H          -6.9071    1.8471    0.6692 H       1  UNL1        0.0350
     35 H          -6.4526    1.9604    2.3960 H       1  UNL1        0.0350
     36 H          -7.8816   -0.2971    1.9023 H       1  UNL1        0.0581
     37 H          -6.8419   -2.8258    1.6773 H       1  UNL1        0.0624
     38 H          -4.8682   -4.0787    0.9357 H       1  UNL1        0.0624
     39 H          -2.6596   -4.1545    0.0072 H       1  UNL1        0.0624
     40 H          -0.5033   -3.1902   -0.4679 H       1  UNL1        0.0624
     41 H           3.1755   -1.8967   -1.3268 H       1  UNL1        0.0836
     42 H           2.4391    1.9741    0.3534 H       1  UNL1        0.0631
     43 H          -4.2878    1.9512    0.8071 H       1  UNL1        0.0581
     44 H           5.0227    0.8218    1.2095 H       1  UNL1        0.0624
     45 H           7.3303    1.4750    0.7613 H       1  UNL1        0.0618
     46 H           8.2846    1.6099   -1.5591 H       1  UNL1        0.0624
     47 H           7.5909    1.2625   -4.1786 H       1  UNL1        0.0699
     48 H           3.2502    0.0961   -3.4552 H       1  UNL1        0.0700
@<TRIPOS>BOND
     1     1     2    1
     2     2     3    2
     3     3     4   ar
     4     4     5   ar
     5     5     6   ar
     6     6     7   ar
     7     7     8   ar
     8     8     9   ar
     9     9    10   ar
    10    10    11   ar
    11    11    12   ar
    12    12    13   ar
    13    13    14   ar
    14    14    15   ar
    15    15    16   ar
    16    16    17   ar
    17    17    18   ar
    18    18    19   ar
    19    19    20   ar
    20    20    21   ar
    21    21    22   ar
    22    22    23   ar
    23    23    24    2
    24    13    25    1
    25    25    26   ar
    26    26    27   ar
    27    27    28   ar
    28    28    29   ar
    29    29    30   ar
    30    30    31   ar
    31    31    32   ar
    32    32    33   ar
    33    24     1    1
    34    33    25   ar
    35    23     3   ar
    36    33    29   ar
    37    22     6   ar
    38    21     9   ar
    39    15    10   ar
    40    20    16   ar
    41     1    34    1
    42     1    35    1
    43     2    36    1
    44     4    37    1
    45     5    38    1
    46     7    39    1
    47     8    40    1
    48    12    41    1
    49    14    42    1
    50    24    43    1
    51    26    44    1
    52    27    45    1
    53    28    46    1
    54    30    47    1
    55    32    48    1
