@<TRIPOS>MOLECULE
*****
 45 52 0 0 0
SMALL
GASTEIGER

@<TRIPOS>ATOM
      1 C           5.2654   -2.1646   -1.9691 C.3     1  UNL1       -0.0148
      2 C           6.2516   -1.4976   -1.0605 C.2     1  UNL1       -0.0725
      3 C           5.5999   -0.6704   -0.2329 C.ar    1  UNL1       -0.0211
      4 C           6.1525    0.1679    0.7999 C.ar    1  UNL1       -0.0537
      5 C           5.3291    0.9373    1.5353 C.ar    1  UNL1       -0.0519
      6 C           3.8623    0.9420    1.3062 C.ar    1  UNL1        0.0028
      7 C           3.0309    1.7455    2.0783 C.ar    1  UNL1        0.0361
      8 N           1.6886    1.8363    1.9658 N.ar    1  UNL1       -0.2522
      9 C           1.1421    1.0571    1.0012 C.ar    1  UNL1        0.0975
     10 C           1.8828    0.2095    0.1642 C.ar    1  UNL1        0.0744
     11 N           0.9800   -0.4127   -0.6824 N.ar    1  UNL1       -0.3524
     12 C          -0.3148   -0.0050   -0.4323 C.ar    1  UNL1        0.0503
     13 C          -1.5540   -0.3567   -1.0334 C.ar    1  UNL1       -0.0287
     14 C          -2.7721    0.2149   -0.5754 C.ar    1  UNL1        0.0049
     15 C          -4.0610   -0.0945   -1.1474 C.ar    1  UNL1        0.0628
     16 S          -4.4053    0.0411   -2.8416 S.2     1  UNL1       -0.0923
     17 C          -6.0571   -0.4830   -2.6601 C.ar    1  UNL1       -0.0129
     18 C          -6.2607   -0.7439   -1.3516 C.ar    1  UNL1        0.0278
     19 C          -7.2687   -1.1878   -0.4819 C.ar    1  UNL1       -0.0156
     20 C          -6.6703   -1.2031    0.7848 C.ar    1  UNL1        0.0932
     21 O          -5.3474   -0.8001    0.7932 O.2     1  UNL1       -0.4618
     22 C          -5.1771   -0.5357   -0.5324 C.ar    1  UNL1        0.1495
     23 C          -2.5858    1.1219    0.4766 C.ar    1  UNL1        0.0289
     24 C          -3.5279    1.8771    1.1405 C.ar    1  UNL1        0.1000
     25 O          -2.9337    2.6567    2.1059 O.2     1  UNL1       -0.4698
     26 C          -1.5843    2.4075    2.0653 C.ar    1  UNL1        0.1001
     27 C          -1.3750    1.4920    1.0854 C.ar    1  UNL1        0.0316
     28 C          -0.1836    0.8959    0.6081 C.ar    1  UNL1        0.0364
     29 C           3.2744    0.1341    0.3020 C.ar    1  UNL1        0.0164
     30 C           4.1623   -0.7125   -0.5098 C.ar    1  UNL1       -0.0120
     31 C           3.9549   -1.5777   -1.5172 C.2     1  UNL1       -0.0719
     32 H           5.2761   -3.2503   -1.8351 H       1  UNL1        0.0350
     33 H           5.4646   -1.9198   -3.0165 H       1  UNL1        0.0350
     34 H           7.3168   -1.6689   -1.0832 H       1  UNL1        0.0581
     35 H           7.2235    0.1667    0.9697 H       1  UNL1        0.0624
     36 H           5.7267    1.5754    2.3179 H       1  UNL1        0.0624
     37 H           3.4454    2.3796    2.8590 H       1  UNL1        0.0836
     38 H           1.2262   -1.0795   -1.3954 H       1  UNL1        0.1660
     39 H          -1.5702   -1.0785   -1.8474 H       1  UNL1        0.0645
     40 H          -6.7216   -0.5584   -3.5088 H       1  UNL1        0.0701
     41 H          -8.2880   -1.4665   -0.7068 H       1  UNL1        0.0655
     42 H          -7.0497   -1.4733    1.7619 H       1  UNL1        0.1030
     43 H          -4.6012    1.9844    1.0707 H       1  UNL1        0.1036
     44 H          -0.9701    2.9512    2.7685 H       1  UNL1        0.1036
     45 H           3.0234   -1.8535   -1.9762 H       1  UNL1        0.0581
@<TRIPOS>BOND
     1     1     2    1
     2     2     3    2
     3     3     4   ar
     4     4     5   ar
     5     5     6   ar
     6     6     7   ar
     7     7     8   ar
     8     8     9   ar
     9     9    10   ar
    10    10    11   ar
    11    11    12   ar
    12    12    13   ar
    13    13    14   ar
    14    14    15    1
    15    15    16   ar
    16    16    17   ar
    17    17    18   ar
    18    18    19   ar
    19    19    20   ar
    20    20    21   ar
    21    21    22   ar
    22    14    23   ar
    23    23    24   ar
    24    24    25   ar
    25    25    26   ar
    26    26    27   ar
    27    27    28   ar
    28    10    29   ar
    29    29    30   ar
    30    30    31    2
    31    31     1    1
    32    30     3   ar
    33    29     6   ar
    34    28     9   ar
    35    28    12   ar
    36    22    15   ar
    37    27    23   ar
    38    22    18   ar
    39     1    32    1
    40     1    33    1
    41     2    34    1
    42     4    35    1
    43     5    36    1
    44     7    37    1
    45    11    38    1
    46    13    39    1
    47    17    40    1
    48    19    41    1
    49    20    42    1
    50    24    43    1
    51    26    44    1
    52    31    45    1
