@<TRIPOS>MOLECULE
*****
 41 47 0 0 0
SMALL
GASTEIGER

@<TRIPOS>ATOM
      1 C          -5.4857   -0.0187   -2.1040 C.3     1  UNL1       -0.0148
      2 C          -6.1456    0.4249   -0.8331 C.2     1  UNL1       -0.0725
      3 C          -5.2110    0.6063    0.1095 C.ar    1  UNL1       -0.0211
      4 C          -5.3955    1.0272    1.4706 C.ar    1  UNL1       -0.0537
      5 C          -4.3173    1.1492    2.2631 C.ar    1  UNL1       -0.0519
      6 C          -2.9506    0.8599    1.7633 C.ar    1  UNL1        0.0029
      7 C          -1.8713    0.9977    2.6094 C.ar    1  UNL1        0.0361
      8 N          -0.6007    0.7566    2.2389 N.ar    1  UNL1       -0.2521
      9 C          -0.3374    0.3558    0.9738 C.ar    1  UNL1        0.0996
     10 C          -1.3636    0.1794    0.0153 C.ar    1  UNL1        0.0981
     11 N          -1.0893   -0.2228   -1.2498 N.ar    1  UNL1       -0.2522
     12 C           0.1852   -0.4618   -1.6140 C.ar    1  UNL1        0.0362
     13 C           1.2745   -0.3258   -0.7759 C.ar    1  UNL1        0.0052
     14 C           2.5815   -0.5993   -1.2608 C.ar    1  UNL1       -0.0396
     15 C           3.7672   -0.4850   -0.4969 C.ar    1  UNL1        0.0480
     16 C           5.0886   -0.7705   -1.0461 C.ar    1  UNL1        0.1651
     17 N           6.1112    0.0083   -0.6900 N.ar    1  UNL1       -0.2159
     18 C           7.2740   -0.3026   -1.2550 C.ar    1  UNL1        0.1200
     19 N           7.4790   -1.2773   -2.1366 N.ar    1  UNL1       -0.2241
     20 C           6.3838   -1.9687   -2.4369 C.ar    1  UNL1        0.1200
     21 N           5.1650   -1.7627   -1.9420 N.ar    1  UNL1       -0.2159
     22 C           3.5668   -0.0883    0.8527 C.ar    1  UNL1        0.1112
     23 N           4.5159    0.0465    1.7970 N.ar    1  UNL1       -0.1900
     24 S           3.7710    0.5339    3.1855 S.2     1  UNL1        0.1165
     25 N           2.2031    0.5737    2.6833 N.ar    1  UNL1       -0.1901
     26 C           2.1696    0.2104    1.3882 C.ar    1  UNL1        0.1104
     27 C           0.9938    0.0931    0.5505 C.ar    1  UNL1        0.0392
     28 C          -2.6842    0.4400    0.4342 C.ar    1  UNL1        0.0184
     29 C          -3.8862    0.3089   -0.4324 C.ar    1  UNL1       -0.0119
     30 C          -4.0355   -0.0552   -1.7180 C.2     1  UNL1       -0.0719
     31 H          -5.8379   -1.0091   -2.4069 H       1  UNL1        0.0350
     32 H          -5.6607    0.6987   -2.9110 H       1  UNL1        0.0350
     33 H          -7.2082    0.5698   -0.7158 H       1  UNL1        0.0581
     34 H          -6.3945    1.2384    1.8352 H       1  UNL1        0.0624
     35 H          -4.4306    1.4656    3.2953 H       1  UNL1        0.0624
     36 H          -1.9865    1.3144    3.6423 H       1  UNL1        0.0836
     37 H           0.2958   -0.7789   -2.6490 H       1  UNL1        0.0836
     38 H           2.6909   -0.9151   -2.3028 H       1  UNL1        0.0632
     39 H           8.1328    0.2968   -0.9726 H       1  UNL1        0.1048
     40 H           6.4935   -2.7750   -3.1542 H       1  UNL1        0.1048
     41 H          -3.2509   -0.3385   -2.4018 H       1  UNL1        0.0581
@<TRIPOS>BOND
     1     1     2    1
     2     2     3    2
     3     3     4   ar
     4     4     5   ar
     5     5     6   ar
     6     6     7   ar
     7     7     8   ar
     8     8     9   ar
     9     9    10   ar
    10    10    11   ar
    11    11    12   ar
    12    12    13   ar
    13    13    14   ar
    14    14    15   ar
    15    15    16    1
    16    16    17   ar
    17    17    18   ar
    18    18    19   ar
    19    19    20   ar
    20    20    21   ar
    21    15    22   ar
    22    22    23   ar
    23    23    24   ar
    24    24    25   ar
    25    25    26   ar
    26    26    27   ar
    27    10    28   ar
    28    28    29   ar
    29    29    30    2
    30    30     1    1
    31    29     3   ar
    32    28     6   ar
    33    27     9   ar
    34    27    13   ar
    35    21    16   ar
    36    26    22   ar
    37     1    31    1
    38     1    32    1
    39     2    33    1
    40     4    34    1
    41     5    35    1
    42     7    36    1
    43    12    37    1
    44    14    38    1
    45    18    39    1
    46    20    40    1
    47    30    41    1
