@<TRIPOS>MOLECULE
*****
 49 56 0 0 0
SMALL
GASTEIGER

@<TRIPOS>ATOM
      1 C          -5.9116    2.2645   -0.7269 C.3     1  UNL1       -0.0148
      2 C          -6.6620    1.0563   -0.2580 C.2     1  UNL1       -0.0725
      3 C          -5.7873    0.0890    0.0480 C.ar    1  UNL1       -0.0212
      4 C          -6.0699   -1.2817    0.3722 C.ar    1  UNL1       -0.0537
      5 C          -5.0461   -2.1506    0.4288 C.ar    1  UNL1       -0.0520
      6 C          -3.6421   -1.7042    0.2482 C.ar    1  UNL1        0.0014
      7 C          -2.6232   -2.6352    0.2198 C.ar    1  UNL1        0.0360
      8 N          -1.3111   -2.3312    0.1025 N.ar    1  UNL1       -0.2537
      9 C          -0.9027   -1.0492    0.1194 C.ar    1  UNL1        0.0806
     10 C           0.5348   -0.7710    0.0551 C.ar    1  UNL1        0.0195
     11 C           1.5915   -1.7131   -0.1089 C.ar    1  UNL1        0.0302
     12 C           1.4861   -3.0782   -0.2321 C.ar    1  UNL1        0.1001
     13 O           2.7225   -3.6442   -0.3427 O.2     1  UNL1       -0.4698
     14 C           3.6385   -2.6370   -0.2920 C.ar    1  UNL1        0.1000
     15 C           3.0014   -1.4257   -0.1777 C.ar    1  UNL1        0.0297
     16 C           3.5955   -0.1625   -0.0939 C.ar    1  UNL1        0.0117
     17 C           2.5954    0.8176    0.1079 C.ar    1  UNL1       -0.0434
     18 C           1.1672    0.5345    0.1705 C.ar    1  UNL1       -0.0038
     19 C           0.1667    1.4892    0.4044 C.ar    1  UNL1        0.0283
     20 C           0.3528    2.8173    0.6961 C.ar    1  UNL1        0.1000
     21 O          -0.8458    3.3952    0.9863 O.2     1  UNL1       -0.4698
     22 C          -1.7990    2.4265    0.8704 C.ar    1  UNL1        0.1001
     23 C          -1.2415    1.2486    0.4339 C.ar    1  UNL1        0.0302
     24 C          -1.8866   -0.0052    0.2173 C.ar    1  UNL1        0.0200
     25 C          -3.2772   -0.3441    0.1373 C.ar    1  UNL1        0.0008
     26 C          -4.4160    0.5747   -0.1092 C.ar    1  UNL1       -0.0134
     27 C          -4.4821    1.8083   -0.6399 C.2     1  UNL1       -0.0719
     28 C           5.0199    0.1363   -0.1758 C.ar    1  UNL1        0.0717
     29 C           5.8507   -0.3834   -1.1678 C.ar    1  UNL1       -0.0357
     30 C           7.1984   -0.0295   -1.1818 C.ar    1  UNL1       -0.0583
     31 C           7.6832    0.8395   -0.2140 C.ar    1  UNL1       -0.0436
     32 C           6.7936    1.3274    0.7260 C.ar    1  UNL1        0.0283
     33 N           5.4819    1.0040    0.7600 N.ar    1  UNL1       -0.2550
     34 H          -6.0934    3.1261   -0.0781 H       1  UNL1        0.0350
     35 H          -6.1790    2.5148   -1.7578 H       1  UNL1        0.0350
     36 H          -7.7375    0.9672   -0.2615 H       1  UNL1        0.0581
     37 H          -7.0963   -1.6029    0.5079 H       1  UNL1        0.0624
     38 H          -5.2287   -3.2006    0.6340 H       1  UNL1        0.0624
     39 H          -2.8286   -3.7010    0.2782 H       1  UNL1        0.0836
     40 H           0.6639   -3.7793   -0.2484 H       1  UNL1        0.1036
     41 H           4.6696   -2.9565   -0.3438 H       1  UNL1        0.1036
     42 H           2.9278    1.8508    0.2212 H       1  UNL1        0.0631
     43 H           1.2113    3.4678    0.7874 H       1  UNL1        0.1036
     44 H          -2.7905    2.7440    1.1580 H       1  UNL1        0.1036
     45 H          -3.6611    2.4051   -1.0036 H       1  UNL1        0.0581
     46 H           5.4598   -1.0421   -1.9368 H       1  UNL1        0.0639
     47 H           7.8606   -0.4254   -1.9465 H       1  UNL1        0.0619
     48 H           8.7262    1.1347   -0.1959 H       1  UNL1        0.0633
     49 H           7.1198    2.0144    1.5018 H       1  UNL1        0.0830
@<TRIPOS>BOND
     1     1     2    1
     2     2     3    2
     3     3     4   ar
     4     4     5   ar
     5     5     6   ar
     6     6     7   ar
     7     7     8   ar
     8     8     9   ar
     9     9    10   ar
    10    10    11   ar
    11    11    12   ar
    12    12    13   ar
    13    13    14   ar
    14    14    15   ar
    15    15    16   ar
    16    16    17   ar
    17    17    18   ar
    18    18    19   ar
    19    19    20   ar
    20    20    21   ar
    21    21    22   ar
    22    22    23   ar
    23    23    24   ar
    24    24    25   ar
    25    25    26   ar
    26    26    27    2
    27    16    28    1
    28    28    29   ar
    29    29    30   ar
    30    30    31   ar
    31    31    32   ar
    32    32    33   ar
    33    27     1    1
    34    33    28   ar
    35    26     3   ar
    36    25     6   ar
    37    24     9   ar
    38    18    10   ar
    39    23    19   ar
    40    15    11   ar
    41     1    34    1
    42     1    35    1
    43     2    36    1
    44     4    37    1
    45     5    38    1
    46     7    39    1
    47    12    40    1
    48    14    41    1
    49    17    42    1
    50    20    43    1
    51    22    44    1
    52    27    45    1
    53    29    46    1
    54    30    47    1
    55    31    48    1
    56    32    49    1
