@<TRIPOS>MOLECULE
*****
 44 50 0 0 0
SMALL
GASTEIGER

@<TRIPOS>ATOM
      1 C          -5.5903   -0.5396   -1.6234 C.3     1  UNL1       -0.0148
      2 C          -6.1972   -0.2242   -0.2911 C.2     1  UNL1       -0.0725
      3 C          -5.2175   -0.0308    0.6016 C.ar    1  UNL1       -0.0212
      4 C          -5.3428    0.1235    2.0244 C.ar    1  UNL1       -0.0537
      5 C          -4.2281    0.0831    2.7741 C.ar    1  UNL1       -0.0520
      6 C          -2.8834   -0.0306    2.1557 C.ar    1  UNL1        0.0014
      7 C          -1.7669   -0.1576    2.9602 C.ar    1  UNL1        0.0360
      8 N          -0.4952   -0.2214    2.5043 N.ar    1  UNL1       -0.2537
      9 C          -0.2366   -0.0493    1.1958 C.ar    1  UNL1        0.0814
     10 C           1.1543   -0.0628    0.7935 C.ar    1  UNL1        0.0269
     11 C           2.1793   -0.3382    1.7034 C.ar    1  UNL1        0.0381
     12 N           3.5139   -0.3767    1.4274 N.ar    1  UNL1       -0.2528
     13 C           3.8980   -0.1184    0.1557 C.ar    1  UNL1        0.0877
     14 C           3.0013    0.1805   -0.8525 C.ar    1  UNL1       -0.0258
     15 C           1.6290    0.2038   -0.5229 C.ar    1  UNL1       -0.0016
     16 C           0.5583    0.5251   -1.3705 C.ar    1  UNL1        0.0284
     17 C           0.6301    0.9534   -2.6706 C.ar    1  UNL1        0.1000
     18 O          -0.6173    1.2870   -3.1070 O.2     1  UNL1       -0.4698
     19 C          -1.4822    1.0588   -2.0752 C.ar    1  UNL1        0.1001
     20 C          -0.8196    0.5121   -1.0034 C.ar    1  UNL1        0.0302
     21 C          -1.3315    0.1545    0.2789 C.ar    1  UNL1        0.0200
     22 C          -2.6749    0.0230    0.7586 C.ar    1  UNL1        0.0008
     23 C          -3.9103   -0.1193   -0.0500 C.ar    1  UNL1       -0.0134
     24 C          -4.1179   -0.4984   -1.3230 C.2     1  UNL1       -0.0719
     25 C           5.3401   -0.1767   -0.0563 C.ar    1  UNL1        0.0649
     26 C           6.1342    0.0155   -1.1754 C.ar    1  UNL1       -0.0349
     27 C           7.4873   -0.1692   -0.7944 C.ar    1  UNL1       -0.0438
     28 C           7.4958   -0.4703    0.5472 C.ar    1  UNL1        0.0022
     29 N           6.1985   -0.4725    0.9821 N.ar    1  UNL1       -0.3595
     30 H          -5.8630    0.2067   -2.3750 H       1  UNL1        0.0350
     31 H          -5.8911   -1.5348   -1.9639 H       1  UNL1        0.0350
     32 H          -7.2559   -0.2460   -0.0831 H       1  UNL1        0.0581
     33 H          -6.3263    0.2110    2.4723 H       1  UNL1        0.0624
     34 H          -4.2918    0.1585    3.8550 H       1  UNL1        0.0624
     35 H          -1.8548   -0.2278    4.0416 H       1  UNL1        0.0836
     36 H           1.9495   -0.5546    2.7461 H       1  UNL1        0.0836
     37 H           3.3407    0.3929   -1.8580 H       1  UNL1        0.0646
     38 H           1.4280    1.1199   -3.3806 H       1  UNL1        0.1036
     39 H          -2.4990    1.3643   -2.2737 H       1  UNL1        0.1036
     40 H          -3.3725   -0.7848   -2.0473 H       1  UNL1        0.0581
     41 H           5.7850    0.2634   -2.1688 H       1  UNL1        0.0639
     42 H           8.3588   -0.0906   -1.4312 H       1  UNL1        0.0633
     43 H           8.3082   -0.6826    1.2288 H       1  UNL1        0.0807
     44 H           5.8760   -0.6598    1.9238 H       1  UNL1        0.1654
@<TRIPOS>BOND
     1     1     2    1
     2     2     3    2
     3     3     4   ar
     4     4     5   ar
     5     5     6   ar
     6     6     7   ar
     7     7     8   ar
     8     8     9   ar
     9     9    10   ar
    10    10    11   ar
    11    11    12   ar
    12    12    13   ar
    13    13    14   ar
    14    14    15   ar
    15    15    16   ar
    16    16    17   ar
    17    17    18   ar
    18    18    19   ar
    19    19    20   ar
    20    20    21   ar
    21    21    22   ar
    22    22    23   ar
    23    23    24    2
    24    13    25    1
    25    25    26   ar
    26    26    27   ar
    27    27    28   ar
    28    28    29   ar
    29    24     1    1
    30    29    25   ar
    31    23     3   ar
    32    22     6   ar
    33    21     9   ar
    34    15    10   ar
    35    20    16   ar
    36     1    30    1
    37     1    31    1
    38     2    32    1
    39     4    33    1
    40     5    34    1
    41     7    35    1
    42    11    36    1
    43    14    37    1
    44    17    38    1
    45    19    39    1
    46    24    40    1
    47    26    41    1
    48    27    42    1
    49    28    43    1
    50    29    44    1
