@<TRIPOS>MOLECULE
*****
 43 49 0 0 0
SMALL
GASTEIGER

@<TRIPOS>ATOM
      1 C           5.7619    2.5471    0.0822 C.3     1  UNL1       -0.0148
      2 C           6.6576    1.3492    0.1436 C.2     1  UNL1       -0.0725
      3 C           5.9104    0.2378    0.1185 C.ar    1  UNL1       -0.0212
      4 C           6.3612   -1.1279    0.1594 C.ar    1  UNL1       -0.0537
      5 C           5.4535   -2.1189    0.1249 C.ar    1  UNL1       -0.0520
      6 C           3.9992   -1.8349    0.0455 C.ar    1  UNL1        0.0019
      7 C           3.0922   -2.8782    0.0117 C.ar    1  UNL1        0.0361
      8 N           1.7589   -2.7475   -0.0596 N.ar    1  UNL1       -0.2517
      9 C           1.2694   -1.4729   -0.1017 C.ar    1  UNL1        0.1045
     10 C          -0.1331   -1.1425   -0.1791 C.ar    1  UNL1        0.1039
     11 N          -1.1680   -2.0336   -0.2224 N.ar    1  UNL1       -0.2517
     12 C          -2.4057   -1.5015   -0.2929 C.ar    1  UNL1        0.0361
     13 C          -2.7187   -0.1461   -0.3167 C.ar    1  UNL1        0.0020
     14 C          -1.6469    0.7501   -0.2806 C.ar    1  UNL1       -0.0367
     15 C          -0.3433    0.2307   -0.2079 C.ar    1  UNL1        0.0409
     16 S           1.1311    1.0861   -0.1429 S.2     1  UNL1       -0.0844
     17 C           2.0965   -0.3390   -0.0733 C.ar    1  UNL1        0.0485
     18 C           3.4968   -0.5111    0.0022 C.ar    1  UNL1        0.0068
     19 C           4.4886    0.5847    0.0400 C.ar    1  UNL1       -0.0129
     20 C           4.3944    1.9258    0.0186 C.2     1  UNL1       -0.0719
     21 C          -4.0920    0.3261   -0.3945 C.ar    1  UNL1       -0.0057
     22 C          -4.6040    1.1708   -1.4192 C.ar    1  UNL1       -0.0533
     23 C          -5.9680    1.6344   -1.4953 C.ar    1  UNL1       -0.0605
     24 C          -6.9720    1.3122   -0.5545 C.ar    1  UNL1       -0.0510
     25 C          -6.4509    0.4972    0.4398 C.ar    1  UNL1        0.0204
     26 C          -7.1192   -0.0025    1.5247 C.ar    1  UNL1        0.0994
     27 O          -6.2588   -0.7459    2.2855 O.2     1  UNL1       -0.4698
     28 C          -5.0338   -0.7156    1.6748 C.ar    1  UNL1        0.1000
     29 C          -5.1051    0.0292    0.5242 C.ar    1  UNL1        0.0276
     30 H           5.9634    3.1462   -0.8107 H       1  UNL1        0.0350
     31 H           5.8703    3.1682    0.9761 H       1  UNL1        0.0350
     32 H           7.7343    1.3940    0.1994 H       1  UNL1        0.0581
     33 H           7.4236   -1.3372    0.2175 H       1  UNL1        0.0624
     34 H           5.7733   -3.1557    0.1550 H       1  UNL1        0.0624
     35 H           3.4295   -3.9119    0.0428 H       1  UNL1        0.0836
     36 H          -3.1962   -2.2494   -0.3411 H       1  UNL1        0.0836
     37 H          -1.8112    1.8241   -0.2946 H       1  UNL1        0.0636
     38 H           3.5019    2.5252   -0.0349 H       1  UNL1        0.0581
     39 H          -3.9289    1.4878   -2.2168 H       1  UNL1        0.0624
     40 H          -6.2382    2.2747   -2.3366 H       1  UNL1        0.0618
     41 H          -7.9906    1.6668   -0.6191 H       1  UNL1        0.0625
     42 H          -8.1313    0.0647    1.8977 H       1  UNL1        0.1035
     43 H          -4.2523   -1.2602    2.1865 H       1  UNL1        0.1036
@<TRIPOS>BOND
     1     1     2    1
     2     2     3    2
     3     3     4   ar
     4     4     5   ar
     5     5     6   ar
     6     6     7   ar
     7     7     8   ar
     8     8     9   ar
     9     9    10   ar
    10    10    11   ar
    11    11    12   ar
    12    12    13   ar
    13    13    14   ar
    14    14    15   ar
    15    15    16   ar
    16    16    17   ar
    17    17    18   ar
    18    18    19   ar
    19    19    20    2
    20    13    21    1
    21    21    22   ar
    22    22    23   ar
    23    23    24   ar
    24    24    25   ar
    25    25    26   ar
    26    26    27   ar
    27    27    28   ar
    28    28    29   ar
    29    20     1    1
    30    29    21   ar
    31    19     3   ar
    32    29    25   ar
    33    18     6   ar
    34    17     9   ar
    35    15    10   ar
    36     1    30    1
    37     1    31    1
    38     2    32    1
    39     4    33    1
    40     5    34    1
    41     7    35    1
    42    12    36    1
    43    14    37    1
    44    20    38    1
    45    22    39    1
    46    23    40    1
    47    24    41    1
    48    26    42    1
    49    28    43    1
