@<TRIPOS>MOLECULE
*****
 47 54 0 0 0
SMALL
GASTEIGER

@<TRIPOS>ATOM
      1 C           5.9393    1.3042   -0.1676 C.3     1  UNL1       -0.0148
      2 C           6.3983    0.0740    0.5526 C.2     1  UNL1       -0.0725
      3 C           5.3302   -0.6619    0.8879 C.ar    1  UNL1       -0.0212
      4 C           5.2965   -1.8311    1.7206 C.ar    1  UNL1       -0.0537
      5 C           4.1028   -2.3050    2.1149 C.ar    1  UNL1       -0.0520
      6 C           2.8292   -1.6971    1.6481 C.ar    1  UNL1        0.0014
      7 C           1.6276   -2.1720    2.1674 C.ar    1  UNL1        0.0361
      8 N           0.4144   -1.7207    1.8012 N.ar    1  UNL1       -0.2506
      9 C           0.3989   -0.8211    0.7920 C.ar    1  UNL1        0.1149
     10 C          -0.9070   -0.3004    0.4013 C.ar    1  UNL1        0.1621
     11 O          -2.0371   -0.5951    1.0877 O.2     1  UNL1       -0.4521
     12 C          -3.0737    0.0751    0.4690 C.ar    1  UNL1        0.1449
     13 C          -2.5632    0.8059   -0.6033 C.ar    1  UNL1       -0.0068
     14 C          -1.1811    0.5586   -0.6340 C.ar    1  UNL1        0.0303
     15 C          -0.1054    0.9468   -1.4628 C.ar    1  UNL1       -0.0103
     16 C          -0.1048    1.5934   -2.6348 C.2     1  UNL1       -0.0718
     17 C           1.2746    1.5481   -3.2169 C.3     1  UNL1       -0.0148
     18 C           2.0363    0.7575   -2.1899 C.2     1  UNL1       -0.0719
     19 C           1.2564    0.4774   -1.1297 C.ar    1  UNL1       -0.0112
     20 C           1.5435   -0.3201    0.1075 C.ar    1  UNL1        0.0197
     21 C           2.7895   -0.6677    0.6575 C.ar    1  UNL1        0.0008
     22 C           4.1071   -0.0462    0.3739 C.ar    1  UNL1       -0.0134
     23 C           4.4464    1.1352   -0.1712 C.2     1  UNL1       -0.0719
     24 C          -4.4229   -0.0111    0.9369 C.ar    1  UNL1        0.0783
     25 S          -4.8284   -0.1427    2.6216 S.2     1  UNL1       -0.0909
     26 C          -6.5413   -0.1373    2.3263 C.ar    1  UNL1       -0.0144
     27 C          -6.7215   -0.0662    0.9926 C.ar    1  UNL1        0.0074
     28 C          -7.7533   -0.0421    0.0241 C.ar    1  UNL1       -0.0361
     29 C          -7.1300    0.0162   -1.2402 C.ar    1  UNL1        0.0028
     30 N          -5.7407    0.0293   -1.1288 N.ar    1  UNL1       -0.3597
     31 C          -5.5758   -0.0070    0.2282 C.ar    1  UNL1        0.0644
     32 H           6.3365    1.3437   -1.1859 H       1  UNL1        0.0350
     33 H           6.2287    2.2074    0.3777 H       1  UNL1        0.0350
     34 H           7.4230   -0.1267    0.8250 H       1  UNL1        0.0581
     35 H           6.2244   -2.2774    2.0601 H       1  UNL1        0.0624
     36 H           4.0474   -3.1656    2.7742 H       1  UNL1        0.0624
     37 H           1.6056   -2.9432    2.9330 H       1  UNL1        0.0836
     38 H          -3.1295    1.4492   -1.2605 H       1  UNL1        0.0662
     39 H          -0.9664    2.0021   -3.1394 H       1  UNL1        0.0581
     40 H           1.2738    1.0329   -4.1820 H       1  UNL1        0.0350
     41 H           1.6925    2.5520   -3.3345 H       1  UNL1        0.0350
     42 H           3.0607    0.4518   -2.3358 H       1  UNL1        0.0581
     43 H           3.7760    1.8960   -0.5372 H       1  UNL1        0.0581
     44 H          -7.2558   -0.1997    3.1339 H       1  UNL1        0.0700
     45 H          -8.8213   -0.0737    0.1943 H       1  UNL1        0.0639
     46 H          -7.5758    0.0386   -2.2265 H       1  UNL1        0.0807
     47 H          -5.0248    0.0355   -1.8442 H       1  UNL1        0.1654
@<TRIPOS>BOND
     1     1     2    1
     2     2     3    2
     3     3     4   ar
     4     4     5   ar
     5     5     6   ar
     6     6     7   ar
     7     7     8   ar
     8     8     9   ar
     9     9    10   ar
    10    10    11   ar
    11    11    12   ar
    12    12    13   ar
    13    13    14   ar
    14    14    15   ar
    15    15    16    2
    16    16    17    1
    17    17    18    1
    18    18    19    2
    19    19    20   ar
    20    20    21   ar
    21    21    22   ar
    22    22    23    2
    23    12    24    1
    24    24    25   ar
    25    25    26   ar
    26    26    27   ar
    27    27    28   ar
    28    28    29   ar
    29    29    30   ar
    30    30    31   ar
    31    23     1    1
    32    31    24   ar
    33    22     3   ar
    34    31    27   ar
    35    21     6   ar
    36    20     9   ar
    37    14    10   ar
    38    19    15   ar
    39     1    32    1
    40     1    33    1
    41     2    34    1
    42     4    35    1
    43     5    36    1
    44     7    37    1
    45    13    38    1
    46    16    39    1
    47    17    40    1
    48    17    41    1
    49    18    42    1
    50    23    43    1
    51    26    44    1
    52    28    45    1
    53    29    46    1
    54    30    47    1
