@<TRIPOS>MOLECULE
*****
 43 49 0 0 0
SMALL
GASTEIGER

@<TRIPOS>ATOM
      1 C          -5.7308    0.1288   -1.3387 C.3     1  UNL1       -0.0148
      2 C          -6.1318    0.4161    0.0751 C.2     1  UNL1       -0.0725
      3 C          -5.0314    0.4944    0.8350 C.ar    1  UNL1       -0.0212
      4 C          -4.9390    0.9185    2.2043 C.ar    1  UNL1       -0.0537
      5 C          -3.7214    1.1408    2.7274 C.ar    1  UNL1       -0.0520
      6 C          -2.4813    0.8775    1.9524 C.ar    1  UNL1        0.0014
      7 C          -1.2503    1.1985    2.5130 C.ar    1  UNL1        0.0361
      8 N          -0.0591    0.9576    1.9305 N.ar    1  UNL1       -0.2506
      9 C          -0.0705    0.2703    0.7629 C.ar    1  UNL1        0.1150
     10 C           1.2230   -0.0112    0.2397 C.ar    1  UNL1        0.1622
     11 O           2.4449    0.3831    0.7314 O.2     1  UNL1       -0.4511
     12 C           3.4246   -0.1325   -0.0931 C.ar    1  UNL1        0.1545
     13 C           2.8444   -0.8729   -1.1163 C.ar    1  UNL1       -0.0058
     14 C           1.4806   -0.7679   -0.8776 C.ar    1  UNL1        0.0337
     15 C           0.3594   -1.3280   -1.5117 C.ar    1  UNL1        0.0313
     16 C           0.2875   -2.1997   -2.5487 C.ar    1  UNL1        0.1001
     17 O          -1.0319   -2.5374   -2.6927 O.2     1  UNL1       -0.4698
     18 C          -1.7405   -1.8553   -1.7323 C.ar    1  UNL1        0.1001
     19 C          -0.9195   -1.0207   -1.0046 C.ar    1  UNL1        0.0304
     20 C          -1.2612   -0.1717    0.1003 C.ar    1  UNL1        0.0230
     21 C          -2.4996    0.2660    0.6665 C.ar    1  UNL1        0.0009
     22 C          -3.8406    0.1991    0.0380 C.ar    1  UNL1       -0.0134
     23 C          -4.2320    0.0687   -1.2413 C.2     1  UNL1       -0.0719
     24 C           4.8074    0.1823    0.2664 C.ar    1  UNL1        0.1060
     25 C           5.8843   -0.3025   -0.4723 C.ar    1  UNL1       -0.0327
     26 C           7.1786    0.0341   -0.0790 C.ar    1  UNL1       -0.0582
     27 C           7.3629    0.8420    1.0356 C.ar    1  UNL1       -0.0436
     28 C           6.2401    1.2819    1.7138 C.ar    1  UNL1        0.0284
     29 N           4.9767    0.9711    1.3543 N.ar    1  UNL1       -0.2519
     30 H          -6.0462    0.9363   -2.0060 H       1  UNL1        0.0350
     31 H          -6.1442   -0.8219   -1.6875 H       1  UNL1        0.0350
     32 H          -7.1432    0.6166    0.3933 H       1  UNL1        0.0581
     33 H          -5.8433    1.1065    2.7720 H       1  UNL1        0.0624
     34 H          -3.6207    1.4979    3.7475 H       1  UNL1        0.0624
     35 H          -1.1795    1.6856    3.4823 H       1  UNL1        0.0836
     36 H           3.3597   -1.4055   -1.9011 H       1  UNL1        0.0662
     37 H           0.9825   -2.6906   -3.2142 H       1  UNL1        0.1036
     38 H          -2.7892   -2.1117   -1.7008 H       1  UNL1        0.1036
     39 H          -3.6003   -0.0179   -2.1101 H       1  UNL1        0.0581
     40 H           5.7352   -0.9330   -1.3412 H       1  UNL1        0.0640
     41 H           8.0347   -0.3319   -0.6386 H       1  UNL1        0.0619
     42 H           8.3556    1.1226    1.3688 H       1  UNL1        0.0633
     43 H           6.3257    1.9157    2.5918 H       1  UNL1        0.0830
@<TRIPOS>BOND
     1     1     2    1
     2     2     3    2
     3     3     4   ar
     4     4     5   ar
     5     5     6   ar
     6     6     7   ar
     7     7     8   ar
     8     8     9   ar
     9     9    10   ar
    10    10    11   ar
    11    11    12   ar
    12    12    13   ar
    13    13    14   ar
    14    14    15   ar
    15    15    16   ar
    16    16    17   ar
    17    17    18   ar
    18    18    19   ar
    19    19    20   ar
    20    20    21   ar
    21    21    22   ar
    22    22    23    2
    23    12    24    1
    24    24    25   ar
    25    25    26   ar
    26    26    27   ar
    27    27    28   ar
    28    28    29   ar
    29    23     1    1
    30    29    24   ar
    31    22     3   ar
    32    21     6   ar
    33    20     9   ar
    34    14    10   ar
    35    19    15   ar
    36     1    30    1
    37     1    31    1
    38     2    32    1
    39     4    33    1
    40     5    34    1
    41     7    35    1
    42    13    36    1
    43    16    37    1
    44    18    38    1
    45    23    39    1
    46    25    40    1
    47    26    41    1
    48    27    42    1
    49    28    43    1
