@<TRIPOS>MOLECULE
*****
 36 41 0 0 0
SMALL
GASTEIGER

@<TRIPOS>ATOM
      1 SI          0.5796   -3.2999    1.6314 Si      1  UNL1        0.0000
      2 C          -0.7498   -2.0588    1.2773 C.2     1  UNL1        0.0000
      3 C          -0.2531   -0.9244    0.7392 C.ar    1  UNL1        0.0000
      4 C          -1.0717    0.2268    0.3379 C.ar    1  UNL1        0.0000
      5 C          -0.4526    1.2836   -0.2333 C.ar    1  UNL1        0.0000
      6 C           1.0079    1.3354   -0.4525 C.ar    1  UNL1        0.0000
      7 C           1.5785    2.4589   -1.0438 C.ar    1  UNL1        0.0000
      8 N           2.8915    2.6469   -1.2850 N.ar    1  UNL1        0.0000
      9 C           3.6913    1.6285   -0.8936 C.ar    1  UNL1        0.0000
     10 C           5.0984    1.5444   -1.0057 C.ar    1  UNL1        0.0000
     11 C           5.4792    0.3374   -0.4701 C.ar    1  UNL1        0.0000
     12 N           4.3449   -0.3039   -0.0413 N.ar    1  UNL1        0.0000
     13 C           3.2239    0.4553   -0.2920 C.ar    1  UNL1        0.0000
     14 C           1.8501    0.2713   -0.0623 C.ar    1  UNL1        0.0000
     15 C           1.2284   -0.9265    0.5457 C.ar    1  UNL1        0.0000
     16 C           1.8214   -2.0723    0.9442 C.2     1  UNL1        0.0000
     17 C          -2.4791    0.3299    0.5104 C.ar    1  UNL1        0.0000
     18 S          -3.2762    0.5674    2.0352 S.2     1  UNL1        0.0000
     19 C          -4.8683    0.5702    1.3258 C.ar    1  UNL1        0.0000
     20 C          -4.7237    0.3975   -0.0050 C.ar    1  UNL1        0.0000
     21 C          -5.4954    0.2991   -1.1731 C.ar    1  UNL1        0.0000
     22 C          -4.5654    0.1188   -2.2055 C.ar    1  UNL1        0.0000
     23 O          -3.2476    0.0948   -1.7861 O.2     1  UNL1        0.0000
     24 C          -3.4290    0.2680   -0.4465 C.ar    1  UNL1        0.0000
     25 H           0.4839   -4.5166    0.7903 H       1  UNL1        0.0000
     26 H           0.7860   -3.5376    3.0799 H       1  UNL1        0.0000
     27 H          -1.7832   -2.2828    1.4894 H       1  UNL1        0.0000
     28 H          -1.0206    2.1559   -0.5481 H       1  UNL1        0.0000
     29 H           0.9566    3.2940   -1.3591 H       1  UNL1        0.0000
     30 H           5.7513    2.2940   -1.4304 H       1  UNL1        0.0000
     31 H           6.4533   -0.1183   -0.3533 H       1  UNL1        0.0000
     32 H           4.3478   -1.2058    0.4063 H       1  UNL1        0.0000
     33 H           2.8497   -2.3705    0.9107 H       1  UNL1        0.0000
     34 H          -5.7542    0.6972    1.9313 H       1  UNL1        0.0000
     35 H          -6.5688    0.3475   -1.2858 H       1  UNL1        0.0000
     36 H          -4.6850   -0.0055   -3.2740 H       1  UNL1        0.0000
@<TRIPOS>BOND
     1     1     2    1
     2     2     3    2
     3     3     4   ar
     4     4     5   ar
     5     5     6   ar
     6     6     7   ar
     7     7     8   ar
     8     8     9   ar
     9     9    10   ar
    10    10    11   ar
    11    11    12   ar
    12    12    13   ar
    13    13    14   ar
    14    14    15   ar
    15    15    16    2
    16     4    17    1
    17    17    18   ar
    18    18    19   ar
    19    19    20   ar
    20    20    21   ar
    21    21    22   ar
    22    22    23   ar
    23    23    24   ar
    24    16     1    1
    25    24    17   ar
    26    15     3   ar
    27    24    20   ar
    28    14     6   ar
    29    13     9   ar
    30     1    25    1
    31     1    26    1
    32     2    27    1
    33     5    28    1
    34     7    29    1
    35    10    30    1
    36    11    31    1
    37    12    32    1
    38    16    33    1
    39    19    34    1
    40    21    35    1
    41    22    36    1
