@<TRIPOS>MOLECULE
*****
 43 49 0 0 0
SMALL
GASTEIGER

@<TRIPOS>ATOM
      1 C           5.8855   -1.9442   -1.6648 C.3     1  UNL1       -0.0148
      2 C           6.6358   -1.1262   -0.6648 C.2     1  UNL1       -0.0725
      3 C           5.7653   -0.4100    0.0587 C.ar    1  UNL1       -0.0212
      4 C           6.0603    0.4328    1.1817 C.ar    1  UNL1       -0.0537
      5 C           5.0419    0.9890    1.8555 C.ar    1  UNL1       -0.0520
      6 C           3.6325    0.7921    1.4357 C.ar    1  UNL1        0.0014
      7 C           2.6299    1.3851    2.1905 C.ar    1  UNL1        0.0360
      8 N           1.3206    1.3208    1.8933 N.ar    1  UNL1       -0.2532
      9 C           0.9741    0.6712    0.7537 C.ar    1  UNL1        0.0858
     10 C          -0.4207    0.6838    0.4704 C.ar    1  UNL1        0.0458
     11 S          -1.7005    1.3778    1.4083 S.2     1  UNL1       -0.0856
     12 C          -2.9112    0.9007    0.3041 C.ar    1  UNL1        0.0274
     13 C          -2.3602    0.2257   -0.7641 C.ar    1  UNL1       -0.0386
     14 C          -0.9328    0.0959   -0.6863 C.ar    1  UNL1       -0.0081
     15 C          -0.0258   -0.4998   -1.5842 C.ar    1  UNL1       -0.0528
     16 C           1.3466   -0.5173   -1.3014 C.ar    1  UNL1       -0.0513
     17 C           1.8846    0.0347   -0.1203 C.ar    1  UNL1        0.0098
     18 C           3.2593    0.0491    0.2760 C.ar    1  UNL1        0.0002
     19 C           4.3934   -0.6445   -0.4044 C.ar    1  UNL1       -0.0134
     20 C           4.4574   -1.5717   -1.3781 C.2     1  UNL1       -0.0719
     21 C          -4.3099    1.1736    0.5202 C.ar    1  UNL1        0.0300
     22 S          -4.8807    2.6810    1.1683 S.2     1  UNL1       -0.0953
     23 C          -6.5394    2.2099    1.0878 C.ar    1  UNL1       -0.0163
     24 C          -6.6236    0.9515    0.5792 C.ar    1  UNL1       -0.0142
     25 C          -7.6703    0.0426    0.2898 C.2     1  UNL1       -0.0574
     26 C          -7.1412   -1.0999   -0.2037 C.2     1  UNL1       -0.0791
     27 C          -5.6130   -1.0176   -0.2819 C.3     1  UNL1       -0.0075
     28 C          -5.3822    0.3580    0.2497 C.ar    1  UNL1       -0.0212
     29 H           6.0511   -3.0133   -1.5023 H       1  UNL1        0.0350
     30 H           6.1651   -1.6786   -2.6884 H       1  UNL1        0.0350
     31 H           7.7058   -1.1578   -0.5286 H       1  UNL1        0.0581
     32 H           7.0899    0.5823    1.4870 H       1  UNL1        0.0624
     33 H           5.2379    1.6146    2.7206 H       1  UNL1        0.0624
     34 H           2.8551    1.9522    3.0898 H       1  UNL1        0.0836
     35 H          -2.9476   -0.1544   -1.5906 H       1  UNL1        0.0635
     36 H          -0.3870   -0.9415   -2.5105 H       1  UNL1        0.0624
     37 H           1.9855   -0.9454   -2.0626 H       1  UNL1        0.0624
     38 H           3.6478   -2.0498   -1.8991 H       1  UNL1        0.0581
     39 H          -7.3236    2.8764    1.4168 H       1  UNL1        0.0699
     40 H          -8.7215    0.2392    0.4465 H       1  UNL1        0.0621
     41 H          -7.7071   -1.9681   -0.5071 H       1  UNL1        0.0575
     42 H          -5.1500   -1.7813    0.3493 H       1  UNL1        0.0356
     43 H          -5.2770   -1.1187   -1.3174 H       1  UNL1        0.0356
@<TRIPOS>BOND
     1     1     2    1
     2     2     3    2
     3     3     4   ar
     4     4     5   ar
     5     5     6   ar
     6     6     7   ar
     7     7     8   ar
     8     8     9   ar
     9     9    10   ar
    10    10    11   ar
    11    11    12   ar
    12    12    13   ar
    13    13    14   ar
    14    14    15   ar
    15    15    16   ar
    16    16    17   ar
    17    17    18   ar
    18    18    19   ar
    19    19    20    2
    20    12    21    1
    21    21    22   ar
    22    22    23   ar
    23    23    24   ar
    24    24    25    1
    25    25    26    2
    26    26    27    1
    27    27    28    1
    28    20     1    1
    29    28    21   ar
    30    19     3   ar
    31    28    24   ar
    32    18     6   ar
    33    17     9   ar
    34    14    10   ar
    35     1    29    1
    36     1    30    1
    37     2    31    1
    38     4    32    1
    39     5    33    1
    40     7    34    1
    41    13    35    1
    42    15    36    1
    43    16    37    1
    44    20    38    1
    45    23    39    1
    46    25    40    1
    47    26    41    1
    48    27    42    1
    49    27    43    1
