@<TRIPOS>MOLECULE
*****
 36 41 0 0 0
SMALL
GASTEIGER

@<TRIPOS>ATOM
      1 C          -3.0270    2.4183    1.6835 C.3     1  UNL1       -0.0148
      2 C          -4.2784    1.6637    1.3315 C.2     1  UNL1       -0.0725
      3 C          -3.9517    0.5597    0.6465 C.ar    1  UNL1       -0.0211
      4 C          -4.8157   -0.4611    0.1050 C.ar    1  UNL1       -0.0537
      5 C          -4.2767   -1.5028   -0.5595 C.ar    1  UNL1       -0.0519
      6 C          -2.8076   -1.6261   -0.7491 C.ar    1  UNL1        0.0044
      7 C          -2.2508   -2.7036   -1.4365 C.ar    1  UNL1        0.0362
      8 N          -0.9286   -2.9096   -1.6639 N.ar    1  UNL1       -0.2511
      9 C          -0.1161   -1.9492   -1.1544 C.ar    1  UNL1        0.1101
     10 C           1.2905   -1.8337   -1.1965 C.ar    1  UNL1        0.0103
     11 C           1.6211   -0.6689   -0.5269 C.ar    1  UNL1        0.1399
     12 O           0.4743   -0.0647   -0.0755 O.2     1  UNL1       -0.4525
     13 C          -0.5783   -0.8414   -0.4563 C.ar    1  UNL1        0.1621
     14 C          -1.9337   -0.6433   -0.2311 C.ar    1  UNL1        0.0354
     15 C          -2.5020    0.4917    0.4916 C.ar    1  UNL1       -0.0105
     16 C          -1.9476    1.5597    1.0856 C.2     1  UNL1       -0.0718
     17 C           2.8581    0.0286   -0.2080 C.ar    1  UNL1        0.0455
     18 C           2.8913    1.2443    0.5195 C.ar    1  UNL1       -0.0489
     19 C           4.0797    1.9416    0.8421 C.ar    1  UNL1       -0.0589
     20 C           5.3533    1.4902    0.4679 C.ar    1  UNL1       -0.0335
     21 C           5.3966    0.2797   -0.2627 C.ar    1  UNL1        0.1006
     22 N           6.5145   -0.3128   -0.7092 N.ar    1  UNL1       -0.1908
     23 S           6.0345   -1.6896   -1.4973 S.2     1  UNL1        0.1165
     24 N           4.3910   -1.5984   -1.3093 N.ar    1  UNL1       -0.1901
     25 C           4.1291   -0.4759   -0.6139 C.ar    1  UNL1        0.1105
     26 H          -3.0297    3.4160    1.2349 H       1  UNL1        0.0350
     27 H          -2.9088    2.5007    2.7679 H       1  UNL1        0.0350
     28 H          -5.2756    1.9781    1.5979 H       1  UNL1        0.0581
     29 H          -5.8879   -0.3735    0.2419 H       1  UNL1        0.0624
     30 H          -4.9119   -2.2793   -0.9732 H       1  UNL1        0.0624
     31 H          -2.8891   -3.4816   -1.8508 H       1  UNL1        0.0836
     32 H           1.9719   -2.5280   -1.6650 H       1  UNL1        0.0677
     33 H          -0.8948    1.7879    1.1389 H       1  UNL1        0.0581
     34 H           1.9494    1.6803    0.8575 H       1  UNL1        0.0625
     35 H           4.0001    2.8711    1.4068 H       1  UNL1        0.0618
     36 H           6.2569    2.0321    0.7203 H       1  UNL1        0.0640
@<TRIPOS>BOND
     1     1     2    1
     2     2     3    2
     3     3     4   ar
     4     4     5   ar
     5     5     6   ar
     6     6     7   ar
     7     7     8   ar
     8     8     9   ar
     9     9    10   ar
    10    10    11   ar
    11    11    12   ar
    12    12    13   ar
    13    13    14   ar
    14    14    15   ar
    15    15    16    2
    16    11    17    1
    17    17    18   ar
    18    18    19   ar
    19    19    20   ar
    20    20    21   ar
    21    21    22   ar
    22    22    23   ar
    23    23    24   ar
    24    24    25   ar
    25    16     1    1
    26    25    17   ar
    27    15     3   ar
    28    25    21   ar
    29    14     6   ar
    30    13     9   ar
    31     1    26    1
    32     1    27    1
    33     2    28    1
    34     4    29    1
    35     5    30    1
    36     7    31    1
    37    10    32    1
    38    16    33    1
    39    18    34    1
    40    19    35    1
    41    20    36    1
