@<TRIPOS>MOLECULE
*****
 42 48 0 0 0
SMALL
GASTEIGER

@<TRIPOS>ATOM
      1 C          -4.4119   -3.0280    0.6433 C.3     1  UNL1       -0.0148
      2 C          -5.6339   -2.1905    0.4477 C.2     1  UNL1       -0.0725
      3 C          -5.2661   -0.9572    0.0766 C.ar    1  UNL1       -0.0212
      4 C          -6.1268    0.1241   -0.3096 C.ar    1  UNL1       -0.0537
      5 C          -5.5716    1.2560   -0.7695 C.ar    1  UNL1       -0.0520
      6 C          -4.0998    1.4273   -0.8327 C.ar    1  UNL1        0.0014
      7 C          -3.5885    2.6108   -1.3360 C.ar    1  UNL1        0.0360
      8 N          -2.2757    2.9016   -1.4003 N.ar    1  UNL1       -0.2543
      9 C          -1.4067    2.0169   -0.8986 C.ar    1  UNL1        0.0722
     10 C          -0.0695    2.3884   -0.9408 C.ar    1  UNL1       -0.0275
     11 C           0.9579    1.5830   -0.4062 C.ar    1  UNL1       -0.0082
     12 C           2.3773    1.7815   -0.3443 C.ar    1  UNL1       -0.0386
     13 C           3.0555    0.7560    0.2891 C.ar    1  UNL1        0.0277
     14 S           1.9544   -0.4450    0.8178 S.2     1  UNL1       -0.0877
     15 C           0.5896    0.3874    0.1915 C.ar    1  UNL1        0.0206
     16 C          -0.7595   -0.0172    0.2424 C.ar    1  UNL1       -0.0376
     17 C          -1.7851    0.7769   -0.3360 C.ar    1  UNL1        0.0097
     18 C          -3.1770    0.4485   -0.3706 C.ar    1  UNL1        0.0002
     19 C          -3.8041   -0.8453    0.0347 C.ar    1  UNL1       -0.0134
     20 C          -3.3060   -2.0639    0.3158 C.2     1  UNL1       -0.0719
     21 C           4.4759    0.6481    0.5236 C.ar    1  UNL1        0.0351
     22 S           5.5418    2.0348    0.4164 S.2     1  UNL1       -0.0934
     23 C           6.9661    1.1337    0.8135 C.ar    1  UNL1        0.0002
     24 C           6.6006   -0.1480    1.0050 C.ar    1  UNL1        0.0542
     25 N           7.4247   -1.1857    1.3300 N.ar    1  UNL1       -0.3602
     26 C           6.5198   -2.2414    1.3884 C.ar    1  UNL1        0.0028
     27 C           5.2058   -1.8134    1.1027 C.ar    1  UNL1       -0.0355
     28 C           5.2566   -0.4127    0.8495 C.ar    1  UNL1        0.0149
     29 H          -4.4047   -3.8794   -0.0438 H       1  UNL1        0.0350
     30 H          -4.3328   -3.3848    1.6742 H       1  UNL1        0.0350
     31 H          -6.6454   -2.5544    0.5422 H       1  UNL1        0.0581
     32 H          -7.2026    0.0008   -0.2580 H       1  UNL1        0.0624
     33 H          -6.2000    2.0813   -1.0889 H       1  UNL1        0.0624
     34 H          -4.2380    3.3939   -1.7180 H       1  UNL1        0.0836
     35 H           0.1894    3.3436   -1.3935 H       1  UNL1        0.0645
     36 H           2.8671    2.6549   -0.7581 H       1  UNL1        0.0635
     37 H          -0.9870   -0.9300    0.7737 H       1  UNL1        0.0636
     38 H          -2.2802   -2.3866    0.2946 H       1  UNL1        0.0581
     39 H           7.9446    1.5883    0.8766 H       1  UNL1        0.0714
     40 H           8.4259   -1.1647    1.4806 H       1  UNL1        0.1653
     41 H           6.8833   -3.2320    1.6302 H       1  UNL1        0.0807
     42 H           4.3368   -2.4575    1.0841 H       1  UNL1        0.0639
@<TRIPOS>BOND
     1     1     2    1
     2     2     3    2
     3     3     4   ar
     4     4     5   ar
     5     5     6   ar
     6     6     7   ar
     7     7     8   ar
     8     8     9   ar
     9     9    10   ar
    10    10    11   ar
    11    11    12   ar
    12    12    13   ar
    13    13    14   ar
    14    14    15   ar
    15    15    16   ar
    16    16    17   ar
    17    17    18   ar
    18    18    19   ar
    19    19    20    2
    20    13    21    1
    21    21    22   ar
    22    22    23   ar
    23    23    24   ar
    24    24    25   ar
    25    25    26   ar
    26    26    27   ar
    27    27    28   ar
    28    20     1    1
    29    28    21   ar
    30    19     3   ar
    31    28    24   ar
    32    18     6   ar
    33    17     9   ar
    34    15    11   ar
    35     1    29    1
    36     1    30    1
    37     2    31    1
    38     4    32    1
    39     5    33    1
    40     7    34    1
    41    10    35    1
    42    12    36    1
    43    16    37    1
    44    20    38    1
    45    23    39    1
    46    25    40    1
    47    26    41    1
    48    27    42    1
