@<TRIPOS>MOLECULE
*****
 35 39 0 0 0
SMALL
GASTEIGER

@<TRIPOS>ATOM
      1 C          -4.4790    2.3894    0.4135 C.3     1  UNL1       -0.0148
      2 C          -5.2750    1.1474    0.1249 C.2     1  UNL1       -0.0725
      3 C          -4.4375    0.1237   -0.0872 C.ar    1  UNL1       -0.0211
      4 C          -4.7421   -1.2502   -0.3966 C.ar    1  UNL1       -0.0523
      5 C          -3.7272   -2.1183   -0.5710 C.ar    1  UNL1       -0.0352
      6 C          -2.3099   -1.7009   -0.4540 C.ar    1  UNL1        0.0716
      7 N          -1.3983   -2.6793   -0.6546 N.ar    1  UNL1       -0.2543
      8 C          -0.0939   -2.3187   -0.5520 C.ar    1  UNL1        0.0389
      9 C           0.3657   -1.0333   -0.2596 C.ar    1  UNL1        0.0360
     10 C          -0.6063   -0.0453   -0.0580 C.ar    1  UNL1       -0.0399
     11 C          -1.9612   -0.3677   -0.1530 C.ar    1  UNL1        0.0085
     12 C          -3.0599    0.5860    0.0390 C.ar    1  UNL1       -0.0126
     13 C          -3.0602    1.8966    0.3291 C.2     1  UNL1       -0.0719
     14 C           1.7922   -0.7429   -0.1703 C.ar    1  UNL1        0.1377
     15 C           2.9447   -1.4943   -0.3137 C.ar    1  UNL1       -0.0080
     16 C           4.0424   -0.6180   -0.1022 C.ar    1  UNL1        0.0208
     17 C           5.4430   -0.7402   -0.1034 C.ar    1  UNL1       -0.0510
     18 C           6.2171    0.3995    0.1598 C.ar    1  UNL1       -0.0610
     19 C           5.6165    1.6348    0.4189 C.ar    1  UNL1       -0.0582
     20 C           4.2248    1.7752    0.4243 C.ar    1  UNL1       -0.0187
     21 C           3.4846    0.6257    0.1596 C.ar    1  UNL1        0.1357
     22 O           2.1270    0.5520    0.1189 O.2     1  UNL1       -0.4548
     23 H          -4.6716    3.1634   -0.3351 H       1  UNL1        0.0350
     24 H          -4.7019    2.7767    1.4120 H       1  UNL1        0.0350
     25 H          -6.3529    1.1061    0.0970 H       1  UNL1        0.0581
     26 H          -5.7756   -1.5647   -0.4841 H       1  UNL1        0.0624
     27 H          -3.9062   -3.1614   -0.8050 H       1  UNL1        0.0639
     28 H           0.5972   -3.1401   -0.7218 H       1  UNL1        0.0837
     29 H          -0.3063    0.9731    0.1726 H       1  UNL1        0.0632
     30 H          -2.1950    2.5225    0.4826 H       1  UNL1        0.0581
     31 H           2.9991   -2.5486   -0.5431 H       1  UNL1        0.0661
     32 H           5.9205   -1.6947   -0.3033 H       1  UNL1        0.0625
     33 H           7.3023    0.3194    0.1621 H       1  UNL1        0.0618
     34 H           6.2407    2.5030    0.6201 H       1  UNL1        0.0619
     35 H           3.7422    2.7241    0.6230 H       1  UNL1        0.0654
@<TRIPOS>BOND
     1     1     2    1
     2     2     3    2
     3     3     4   ar
     4     4     5   ar
     5     5     6   ar
     6     6     7   ar
     7     7     8   ar
     8     8     9   ar
     9     9    10   ar
    10    10    11   ar
    11    11    12   ar
    12    12    13    2
    13     9    14    1
    14    14    15   ar
    15    15    16   ar
    16    16    17   ar
    17    17    18   ar
    18    18    19   ar
    19    19    20   ar
    20    20    21   ar
    21    21    22   ar
    22    13     1    1
    23    22    14   ar
    24    12     3   ar
    25    21    16   ar
    26    11     6   ar
    27     1    23    1
    28     1    24    1
    29     2    25    1
    30     4    26    1
    31     5    27    1
    32     8    28    1
    33    10    29    1
    34    13    30    1
    35    15    31    1
    36    17    32    1
    37    18    33    1
    38    19    34    1
    39    20    35    1
