@<TRIPOS>MOLECULE
*****
 49 56 0 0 0
SMALL
GASTEIGER

@<TRIPOS>ATOM
      1 C           6.3088   -1.1686   -2.2880 C.3     1  UNL1        0.0000
      2 C           6.9488   -0.1197   -1.4356 C.2     1  UNL1        0.0000
      3 C           6.0186    0.4335   -0.6468 C.ar    1  UNL1        0.0000
      4 C           6.2208    1.4003    0.3950 C.ar    1  UNL1        0.0000
      5 C           5.1731    1.7381    1.1631 C.ar    1  UNL1        0.0000
      6 C           3.8188    1.1875    0.9327 C.ar    1  UNL1        0.0000
      7 N           2.9019    1.6473    1.8032 N.ar    1  UNL1        0.0000
      8 C           1.6343    1.2153    1.6277 C.ar    1  UNL1        0.0000
      9 C           1.1732    0.3604    0.6150 C.ar    1  UNL1        0.0000
     10 C           2.1455   -0.0141   -0.3561 C.ar    1  UNL1        0.0000
     11 C           1.6684   -0.6491   -1.5216 C.ar    1  UNL1        0.0000
     12 C           0.3185   -0.9316   -1.7230 C.ar    1  UNL1        0.0000
     13 C          -0.6166   -0.6457   -0.7326 C.ar    1  UNL1        0.0000
     14 C          -2.0444   -0.8797   -1.0483 C.ar    1  UNL1        0.0000
     15 C          -3.0427   -0.6506   -0.1697 C.ar    1  UNL1        0.0000
     16 C          -4.3823   -0.8424   -0.6309 C.ar    1  UNL1        0.0000
     17 S          -4.9887   -2.4245   -1.0976 S.2     1  UNL1        0.0000
     18 C          -6.5777   -1.8401   -1.4710 C.ar    1  UNL1        0.0000
     19 C          -6.5911   -0.5183   -1.2287 C.ar    1  UNL1        0.0000
     20 O          -7.6485    0.3230   -1.3861 O.2     1  UNL1        0.0000
     21 C          -7.0606    1.5102   -0.9862 C.ar    1  UNL1        0.0000
     22 C          -5.7173    1.3870   -0.6077 C.ar    1  UNL1        0.0000
     23 C          -5.4155    0.0237   -0.7749 C.ar    1  UNL1        0.0000
     24 C          -2.6733   -0.2246    1.1801 C.ar    1  UNL1        0.0000
     25 C          -3.5443   -0.1328    2.2080 C.2     1  UNL1        0.0000
     26 SI         -2.6852    0.2192    3.8151 Si      1  UNL1        0.0000
     27 C          -1.0682    0.1837    2.8737 C.2     1  UNL1        0.0000
     28 C          -1.2507    0.0278    1.5435 C.ar    1  UNL1        0.0000
     29 C          -0.1906   -0.0690    0.4889 C.ar    1  UNL1        0.0000
     30 C           3.5182    0.3158   -0.1412 C.ar    1  UNL1        0.0000
     31 C           4.7000   -0.1443   -0.9250 C.ar    1  UNL1        0.0000
     32 C           4.8739   -1.1140   -1.8423 C.2     1  UNL1        0.0000
     33 H           6.4018   -0.9306   -3.3515 H       1  UNL1        0.0000
     34 H           6.7422   -2.1535   -2.0904 H       1  UNL1        0.0000
     35 H           8.0049    0.1022   -1.4298 H       1  UNL1        0.0000
     36 H           7.2075    1.8128    0.5699 H       1  UNL1        0.0000
     37 H           5.2762    2.4465    1.9776 H       1  UNL1        0.0000
     38 H           0.9523    1.6720    2.3368 H       1  UNL1        0.0000
     39 H           2.3294   -0.8612   -2.3540 H       1  UNL1        0.0000
     40 H           0.0122   -1.3684   -2.6712 H       1  UNL1        0.0000
     41 H          -2.2658   -1.2027   -2.0627 H       1  UNL1        0.0000
     42 H          -7.3799   -2.4687   -1.8282 H       1  UNL1        0.0000
     43 H          -7.7266    2.3625   -1.0251 H       1  UNL1        0.0000
     44 H          -5.0737    2.1846   -0.2652 H       1  UNL1        0.0000
     45 H          -4.6072   -0.3165    2.1832 H       1  UNL1        0.0000
     46 H          -2.7968   -0.8964    4.7843 H       1  UNL1        0.0000
     47 H          -2.9933    1.5697    4.3432 H       1  UNL1        0.0000
     48 H          -0.1513    0.2539    3.4330 H       1  UNL1        0.0000
     49 H           4.1430   -1.8099   -2.2172 H       1  UNL1        0.0000
@<TRIPOS>BOND
     1     1     2    1
     2     2     3    2
     3     3     4   ar
     4     4     5   ar
     5     5     6   ar
     6     6     7   ar
     7     7     8   ar
     8     8     9   ar
     9     9    10   ar
    10    10    11   ar
    11    11    12   ar
    12    12    13   ar
    13    13    14   ar
    14    14    15   ar
    15    15    16    1
    16    16    17   ar
    17    17    18   ar
    18    18    19   ar
    19    19    20   ar
    20    20    21   ar
    21    21    22   ar
    22    22    23   ar
    23    15    24   ar
    24    24    25    2
    25    25    26    1
    26    26    27    1
    27    27    28    2
    28    28    29   ar
    29    10    30   ar
    30    30    31   ar
    31    31    32    2
    32    32     1    1
    33    31     3   ar
    34    30     6   ar
    35    29     9   ar
    36    29    13   ar
    37    23    16   ar
    38    28    24   ar
    39    23    19   ar
    40     1    33    1
    41     1    34    1
    42     2    35    1
    43     4    36    1
    44     5    37    1
    45     8    38    1
    46    11    39    1
    47    12    40    1
    48    14    41    1
    49    18    42    1
    50    21    43    1
    51    22    44    1
    52    25    45    1
    53    26    46    1
    54    26    47    1
    55    27    48    1
    56    32    49    1
