@<TRIPOS>MOLECULE
*****
 42 48 0 0 0
SMALL
GASTEIGER

@<TRIPOS>ATOM
      1 C          -5.2405    0.2850    2.7643 C.3     1  UNL1        0.0000
      2 C          -6.1014    0.1522    1.5465 C.2     1  UNL1        0.0000
      3 C          -5.3205    0.0320    0.4651 C.ar    1  UNL1        0.0000
      4 C          -5.7288   -0.1187   -0.9067 C.ar    1  UNL1        0.0000
      5 C          -4.7836   -0.2249   -1.8566 C.ar    1  UNL1        0.0000
      6 C          -3.3396   -0.1911   -1.5318 C.ar    1  UNL1        0.0000
      7 N          -2.5302   -0.3092   -2.5972 N.ar    1  UNL1        0.0000
      8 C          -1.1956   -0.2902   -2.4068 C.ar    1  UNL1        0.0000
      9 C          -0.6128   -0.1515   -1.1339 C.ar    1  UNL1        0.0000
     10 C          -1.4855   -0.0276   -0.0300 C.ar    1  UNL1        0.0000
     11 S          -0.5807    0.1349    1.4306 S.2     1  UNL1        0.0000
     12 C           0.9180    0.0468    0.6507 C.ar    1  UNL1        0.0000
     13 C           2.1390    0.1340    1.3894 C.ar    1  UNL1        0.0000
     14 C           3.3184    0.0544    0.7310 C.ar    1  UNL1        0.0000
     15 C           4.5090    0.1777    1.5138 C.ar    1  UNL1        0.0000
     16 C           5.4407    1.2029    1.5523 C.ar    1  UNL1        0.0000
     17 N           6.5148    1.0261    2.4037 N.ar    1  UNL1        0.0000
     18 C           6.3972   -0.1359    3.0049 C.ar    1  UNL1        0.0000
     19 S           5.0215   -1.0696    2.5921 S.2     1  UNL1        0.0000
     20 C           3.2911   -0.1149   -0.7336 C.ar    1  UNL1        0.0000
     21 C           4.3938   -0.2211   -1.5059 C.2     1  UNL1        0.0000
     22 SI          3.9639   -0.4349   -3.3019 Si      1  UNL1        0.0000
     23 C           2.1573   -0.3636   -2.8168 C.2     1  UNL1        0.0000
     24 C           1.9983   -0.2005   -1.4886 C.ar    1  UNL1        0.0000
     25 C           0.7767   -0.1090   -0.7192 C.ar    1  UNL1        0.0000
     26 C          -2.8863   -0.0458   -0.2080 C.ar    1  UNL1        0.0000
     27 C          -3.9067    0.0727    0.8535 C.ar    1  UNL1        0.0000
     28 C          -3.8531    0.2195    2.1890 C.2     1  UNL1        0.0000
     29 H          -5.4126    1.2408    3.2678 H       1  UNL1        0.0000
     30 H          -5.4153   -0.5378    3.4636 H       1  UNL1        0.0000
     31 H          -7.1804    0.1550    1.5579 H       1  UNL1        0.0000
     32 H          -6.7836   -0.1446   -1.1549 H       1  UNL1        0.0000
     33 H          -5.0433   -0.3399   -2.9029 H       1  UNL1        0.0000
     34 H          -0.6217   -0.3896   -3.3175 H       1  UNL1        0.0000
     35 H           2.0972    0.2737    2.4666 H       1  UNL1        0.0000
     36 H           5.3794    2.1140    0.9685 H       1  UNL1        0.0000
     37 H           7.1266   -0.4912    3.7211 H       1  UNL1        0.0000
     38 H           5.4245   -0.2014   -1.1874 H       1  UNL1        0.0000
     39 H           4.3651    0.7292   -4.1263 H       1  UNL1        0.0000
     40 H           4.3483   -1.7656   -3.8281 H       1  UNL1        0.0000
     41 H           1.4191   -0.4590   -3.5896 H       1  UNL1        0.0000
     42 H          -2.9774    0.2866    2.8115 H       1  UNL1        0.0000
@<TRIPOS>BOND
     1     1     2    1
     2     2     3    2
     3     3     4   ar
     4     4     5   ar
     5     5     6   ar
     6     6     7   ar
     7     7     8   ar
     8     8     9   ar
     9     9    10   ar
    10    10    11   ar
    11    11    12   ar
    12    12    13   ar
    13    13    14   ar
    14    14    15    1
    15    15    16   ar
    16    16    17   ar
    17    17    18   ar
    18    18    19   ar
    19    14    20   ar
    20    20    21    2
    21    21    22    1
    22    22    23    1
    23    23    24    2
    24    24    25   ar
    25    10    26   ar
    26    26    27   ar
    27    27    28    2
    28    28     1    1
    29    27     3   ar
    30    26     6   ar
    31    25     9   ar
    32    25    12   ar
    33    19    15   ar
    34    24    20   ar
    35     1    29    1
    36     1    30    1
    37     2    31    1
    38     4    32    1
    39     5    33    1
    40     8    34    1
    41    13    35    1
    42    16    36    1
    43    18    37    1
    44    21    38    1
    45    22    39    1
    46    22    40    1
    47    23    41    1
    48    28    42    1
