@<TRIPOS>MOLECULE
*****
 46 53 0 0 0
SMALL
GASTEIGER

@<TRIPOS>ATOM
      1 C           5.3089   -3.3706   -0.0920 C.3     1  UNL1       -0.0148
      2 C           6.2151   -2.2354    0.2699 C.2     1  UNL1       -0.0725
      3 C           5.4860   -1.1196    0.4050 C.ar    1  UNL1       -0.0211
      4 C           5.9636    0.2194    0.6052 C.ar    1  UNL1       -0.0523
      5 C           5.0770    1.2256    0.5373 C.ar    1  UNL1       -0.0351
      6 C           3.6305    0.9845    0.3330 C.ar    1  UNL1        0.0722
      7 N           2.9060    2.1146    0.2541 N.ar    1  UNL1       -0.2543
      8 C           1.5700    1.9744    0.1048 C.ar    1  UNL1        0.0366
      9 C           0.8439    0.7787    0.0859 C.ar    1  UNL1        0.0114
     10 C          -0.6159    0.7511   -0.0903 C.ar    1  UNL1        0.0026
     11 C          -1.5285    1.7664   -0.5452 C.ar    1  UNL1        0.0085
     12 C          -1.2138    2.9914   -1.0940 C.ar    1  UNL1        0.0100
     13 N          -2.3867    3.6498   -1.3896 N.ar    1  UNL1       -0.3659
     14 C          -3.4584    2.8454   -1.1028 C.ar    1  UNL1        0.0101
     15 C          -2.9693    1.6510   -0.6272 C.ar    1  UNL1        0.0107
     16 C          -3.7306    0.5292   -0.2824 C.ar    1  UNL1        0.0290
     17 C          -2.8604   -0.5093    0.1266 C.ar    1  UNL1       -0.0405
     18 C          -1.4099   -0.4173    0.1934 C.ar    1  UNL1        0.0123
     19 C          -0.6635   -1.5677    0.5878 C.ar    1  UNL1        0.1082
     20 N          -1.1981   -2.7547    0.9350 N.ar    1  UNL1       -0.1901
     21 S           0.0441   -3.7479    1.3615 S.2     1  UNL1        0.1165
     22 N           1.3175   -2.7390    1.1043 N.ar    1  UNL1       -0.1901
     23 C           0.8483   -1.5647    0.6448 C.ar    1  UNL1        0.1089
     24 C           1.6363   -0.3944    0.3162 C.ar    1  UNL1        0.0221
     25 C           3.0679   -0.3097    0.2955 C.ar    1  UNL1        0.0176
     26 C           4.0623   -1.4117    0.2154 C.ar    1  UNL1       -0.0120
     27 C           3.9652   -2.7024   -0.1486 C.2     1  UNL1       -0.0719
     28 C          -5.1820    0.3931   -0.3462 C.ar    1  UNL1        0.1636
     29 N          -5.7525   -0.3955    0.5724 N.ar    1  UNL1       -0.2160
     30 C          -7.0726   -0.5185    0.4606 C.ar    1  UNL1        0.1200
     31 N          -7.8361    0.0481   -0.4689 N.ar    1  UNL1       -0.2241
     32 C          -7.1578    0.7924   -1.3365 C.ar    1  UNL1        0.1200
     33 N          -5.8447    1.0079   -1.3301 N.ar    1  UNL1       -0.2160
     34 H           5.3288   -4.1571    0.6675 H       1  UNL1        0.0350
     35 H           5.5765   -3.7898   -1.0662 H       1  UNL1        0.0350
     36 H           7.2893   -2.3087    0.3330 H       1  UNL1        0.0581
     37 H           7.0208    0.4027    0.7558 H       1  UNL1        0.0624
     38 H           5.3861    2.2587    0.6493 H       1  UNL1        0.0639
     39 H           1.0747    2.9378    0.0809 H       1  UNL1        0.0836
     40 H          -0.2848    3.4823   -1.3417 H       1  UNL1        0.0813
     41 H          -2.4462    4.5727   -1.8005 H       1  UNL1        0.1648
     42 H          -4.4638    3.1941   -1.2997 H       1  UNL1        0.0813
     43 H          -3.3218   -1.4627    0.4014 H       1  UNL1        0.0631
     44 H           3.0793   -3.2266   -0.4650 H       1  UNL1        0.0581
     45 H          -7.5725   -1.1383    1.1969 H       1  UNL1        0.1048
     46 H          -7.7280    1.2697   -2.1254 H       1  UNL1        0.1048
@<TRIPOS>BOND
     1     1     2    1
     2     2     3    2
     3     3     4   ar
     4     4     5   ar
     5     5     6   ar
     6     6     7   ar
     7     7     8   ar
     8     8     9   ar
     9     9    10   ar
    10    10    11   ar
    11    11    12   ar
    12    12    13   ar
    13    13    14   ar
    14    14    15   ar
    15    15    16   ar
    16    16    17   ar
    17    17    18   ar
    18    18    19   ar
    19    19    20   ar
    20    20    21   ar
    21    21    22   ar
    22    22    23   ar
    23    23    24   ar
    24    24    25   ar
    25    25    26   ar
    26    26    27    2
    27    16    28    1
    28    28    29   ar
    29    29    30   ar
    30    30    31   ar
    31    31    32   ar
    32    32    33   ar
    33    27     1    1
    34    33    28   ar
    35    26     3   ar
    36    25     6   ar
    37    24     9   ar
    38    18    10   ar
    39    23    19   ar
    40    15    11   ar
    41     1    34    1
    42     1    35    1
    43     2    36    1
    44     4    37    1
    45     5    38    1
    46     8    39    1
    47    12    40    1
    48    13    41    1
    49    14    42    1
    50    17    43    1
    51    27    44    1
    52    30    45    1
    53    32    46    1
