@<TRIPOS>MOLECULE
*****
 46 53 0 0 0
SMALL
GASTEIGER

@<TRIPOS>ATOM
      1 C          -6.1746   -0.0080    0.9451 C.3     1  UNL1       -0.0148
      2 C          -6.4579   -0.3235   -0.4915 C.2     1  UNL1       -0.0725
      3 C          -5.2999   -0.3986   -1.1605 C.ar    1  UNL1       -0.0211
      4 C          -5.0903   -0.8401   -2.5114 C.ar    1  UNL1       -0.0523
      5 C          -3.8285   -1.0539   -2.9211 C.ar    1  UNL1       -0.0351
      6 C          -2.6604   -0.7733   -2.0526 C.ar    1  UNL1        0.0722
      7 N          -1.4798   -1.1429   -2.5948 N.ar    1  UNL1       -0.2543
      8 C          -0.3690   -0.8772   -1.8762 C.ar    1  UNL1        0.0363
      9 C          -0.3277   -0.1610   -0.6803 C.ar    1  UNL1        0.0055
     10 C           0.9239    0.0956   -0.0398 C.ar    1  UNL1       -0.0261
     11 C           2.3036   -0.3703   -0.4354 C.3     1  UNL1       -0.0001
     12 C           3.2009    0.2566    0.6392 C.2     1  UNL1       -0.0281
     13 C           2.4645    0.9774    1.5136 C.2     1  UNL1       -0.0491
     14 C           1.0855    0.8804    1.1068 C.ar    1  UNL1       -0.0124
     15 C          -0.0779    1.4681    1.5630 C.ar    1  UNL1       -0.0028
     16 C          -0.1242    2.3678    2.5987 C.ar    1  UNL1       -0.0160
     17 S          -1.7015    3.0133    2.7802 S.2     1  UNL1       -0.1038
     18 C          -2.3040    2.0923    1.4591 C.ar    1  UNL1       -0.0160
     19 C          -1.3722    1.2152    0.9520 C.ar    1  UNL1       -0.0019
     20 C          -1.5908    0.3101   -0.1598 C.ar    1  UNL1        0.0018
     21 C          -2.7934   -0.1332   -0.7963 C.ar    1  UNL1        0.0161
     22 C          -4.1800   -0.0743   -0.2760 C.ar    1  UNL1       -0.0120
     23 C          -4.6738    0.0713    0.9663 C.2     1  UNL1       -0.0719
     24 C           4.6257    0.1315    0.7439 C.ar    1  UNL1        0.0239
     25 S           5.5572    0.8834    2.0143 S.2     1  UNL1       -0.0952
     26 C           7.0592    0.2813    1.4478 C.ar    1  UNL1       -0.0094
     27 C           6.8735   -0.4705    0.3278 C.ar    1  UNL1        0.0269
     28 S           8.0654   -1.3487   -0.6981 S.2     1  UNL1       -0.0961
     29 C           6.6681   -1.8159   -1.6506 C.ar    1  UNL1       -0.0231
     30 C           5.4289   -1.3369   -1.2092 C.ar    1  UNL1       -0.0459
     31 C           5.5268   -0.5349   -0.0348 C.ar    1  UNL1        0.0037
     32 H          -6.5322   -0.8089    1.5990 H       1  UNL1        0.0350
     33 H          -6.6264    0.9424    1.2432 H       1  UNL1        0.0350
     34 H          -7.4384   -0.5423   -0.8859 H       1  UNL1        0.0581
     35 H          -5.9382   -1.0480   -3.1534 H       1  UNL1        0.0624
     36 H          -3.6132   -1.4259   -3.9165 H       1  UNL1        0.0639
     37 H           0.5388   -1.2532   -2.3421 H       1  UNL1        0.0836
     38 H           2.3634   -1.4628   -0.4017 H       1  UNL1        0.0362
     39 H           2.5686    0.0099   -1.4271 H       1  UNL1        0.0362
     40 H           2.7938    1.5402    2.3717 H       1  UNL1        0.0627
     41 H           0.6763    2.7179    3.2357 H       1  UNL1        0.0700
     42 H          -3.3168    2.2793    1.1369 H       1  UNL1        0.0700
     43 H          -4.1117    0.1913    1.8788 H       1  UNL1        0.0581
     44 H           7.9968    0.4943    1.9424 H       1  UNL1        0.0705
     45 H           6.8485   -2.4411   -2.5147 H       1  UNL1        0.0694
     46 H           4.5135   -1.5741   -1.7341 H       1  UNL1        0.0629
@<TRIPOS>BOND
     1     1     2    1
     2     2     3    2
     3     3     4   ar
     4     4     5   ar
     5     5     6   ar
     6     6     7   ar
     7     7     8   ar
     8     8     9   ar
     9     9    10   ar
    10    10    11    1
    11    11    12    1
    12    12    13    2
    13    13    14    1
    14    14    15   ar
    15    15    16   ar
    16    16    17   ar
    17    17    18   ar
    18    18    19   ar
    19    19    20   ar
    20    20    21   ar
    21    21    22   ar
    22    22    23    2
    23    12    24    1
    24    24    25   ar
    25    25    26   ar
    26    26    27   ar
    27    27    28   ar
    28    28    29   ar
    29    29    30   ar
    30    30    31   ar
    31    23     1    1
    32    31    24   ar
    33    22     3   ar
    34    31    27   ar
    35    21     6   ar
    36    20     9   ar
    37    14    10   ar
    38    19    15   ar
    39     1    32    1
    40     1    33    1
    41     2    34    1
    42     4    35    1
    43     5    36    1
    44     8    37    1
    45    11    38    1
    46    11    39    1
    47    13    40    1
    48    16    41    1
    49    18    42    1
    50    23    43    1
    51    26    44    1
    52    29    45    1
    53    30    46    1
