@<TRIPOS>MOLECULE
*****
 42 48 0 0 0
SMALL
GASTEIGER

@<TRIPOS>ATOM
      1 C          -4.9918    0.4198   -2.0084 C.3     1  UNL1       -0.0148
      2 C          -5.7508    0.2406   -0.7297 C.2     1  UNL1       -0.0725
      3 C          -4.8824    0.1445    0.2855 C.ar    1  UNL1       -0.0211
      4 C          -5.1713    0.1341    1.6930 C.ar    1  UNL1       -0.0523
      5 C          -4.1460    0.2495    2.5539 C.ar    1  UNL1       -0.0351
      6 C          -2.7370    0.3048    2.0970 C.ar    1  UNL1        0.0722
      7 N          -1.8476    0.4916    3.0972 N.ar    1  UNL1       -0.2543
      8 C          -0.5391    0.4899    2.7612 C.ar    1  UNL1        0.0360
      9 C          -0.0268    0.2125    1.4974 C.ar    1  UNL1        0.0021
     10 C           1.4089    0.1834    1.3181 C.ar    1  UNL1       -0.0441
     11 C           2.0859   -0.1762    0.1270 C.ar    1  UNL1       -0.0044
     12 C           3.5289   -0.2289   -0.0222 C.ar    1  UNL1        0.0110
     13 C           4.2374   -1.4118   -0.3489 C.ar    1  UNL1       -0.0518
     14 C           5.6444   -1.4776   -0.4907 C.ar    1  UNL1       -0.0590
     15 C           6.4832   -0.3665   -0.3144 C.ar    1  UNL1       -0.0335
     16 C           5.8440    0.8488    0.0249 C.ar    1  UNL1        0.1005
     17 N           6.4636    2.0191    0.2411 N.ar    1  UNL1       -0.1908
     18 S           5.2760    3.1206    0.6000 S.2     1  UNL1        0.1165
     19 N           3.9246    2.1642    0.5070 N.ar    1  UNL1       -0.1902
     20 C           4.3414    0.9275    0.1787 C.ar    1  UNL1        0.1076
     21 C           1.1522   -0.5416   -0.8406 C.ar    1  UNL1        0.0282
     22 C           1.4086   -1.0215   -2.1002 C.ar    1  UNL1        0.1000
     23 O           0.2396   -1.3784   -2.7020 O.2     1  UNL1       -0.4698
     24 C          -0.7705   -1.0958   -1.8283 C.ar    1  UNL1        0.1000
     25 C          -0.2758   -0.4954   -0.6967 C.ar    1  UNL1        0.0288
     26 C          -0.9888   -0.0526    0.4611 C.ar    1  UNL1        0.0041
     27 C          -2.3799    0.1200    0.7402 C.ar    1  UNL1        0.0162
     28 C          -3.5077    0.1734   -0.2169 C.ar    1  UNL1       -0.0120
     29 C          -3.5640    0.4159   -1.5378 C.2     1  UNL1       -0.0719
     30 H          -5.2438    1.3734   -2.4818 H       1  UNL1        0.0350
     31 H          -5.1819   -0.4010   -2.7058 H       1  UNL1        0.0350
     32 H          -6.8263    0.2777   -0.6485 H       1  UNL1        0.0581
     33 H          -6.1982    0.0929    2.0368 H       1  UNL1        0.0624
     34 H          -4.3089    0.2871    3.6253 H       1  UNL1        0.0639
     35 H           0.1228    0.6957    3.6005 H       1  UNL1        0.0836
     36 H           2.0313    0.4432    2.1794 H       1  UNL1        0.0630
     37 H           3.6742   -2.3366   -0.4914 H       1  UNL1        0.0624
     38 H           6.0972   -2.4368   -0.7448 H       1  UNL1        0.0618
     39 H           7.5591   -0.4294   -0.4249 H       1  UNL1        0.0640
     40 H           2.3010   -1.2075   -2.6810 H       1  UNL1        0.1036
     41 H          -1.7475   -1.4058   -2.1666 H       1  UNL1        0.1036
     42 H          -2.7382    0.6327   -2.1956 H       1  UNL1        0.0581
@<TRIPOS>BOND
     1     1     2    1
     2     2     3    2
     3     3     4   ar
     4     4     5   ar
     5     5     6   ar
     6     6     7   ar
     7     7     8   ar
     8     8     9   ar
     9     9    10   ar
    10    10    11   ar
    11    11    12    1
    12    12    13   ar
    13    13    14   ar
    14    14    15   ar
    15    15    16   ar
    16    16    17   ar
    17    17    18   ar
    18    18    19   ar
    19    19    20   ar
    20    11    21   ar
    21    21    22   ar
    22    22    23   ar
    23    23    24   ar
    24    24    25   ar
    25    25    26   ar
    26    26    27   ar
    27    27    28   ar
    28    28    29    2
    29    29     1    1
    30    28     3   ar
    31    27     6   ar
    32    26     9   ar
    33    20    12   ar
    34    25    21   ar
    35    20    16   ar
    36     1    30    1
    37     1    31    1
    38     2    32    1
    39     4    33    1
    40     5    34    1
    41     8    35    1
    42    10    36    1
    43    13    37    1
    44    14    38    1
    45    15    39    1
    46    22    40    1
    47    24    41    1
    48    29    42    1
