@<TRIPOS>MOLECULE
*****
 38 43 0 0 0
SMALL
GASTEIGER

@<TRIPOS>ATOM
      1 C          -2.3365    2.9501   -1.7005 C.3     1  UNL1       -0.0148
      2 C          -3.7420    2.4160   -1.7184 C.2     1  UNL1       -0.0725
      3 C          -3.7480    1.1678   -1.2320 C.ar    1  UNL1       -0.0210
      4 C          -4.8582    0.2599   -1.0673 C.ar    1  UNL1       -0.0523
      5 C          -4.6335   -0.9696   -0.5618 C.ar    1  UNL1       -0.0350
      6 C          -3.2761   -1.4179   -0.1638 C.ar    1  UNL1        0.0751
      7 N          -3.1960   -2.6787    0.3284 N.ar    1  UNL1       -0.2541
      8 C          -1.9877   -3.1598    0.7184 C.ar    1  UNL1        0.0390
      9 C          -0.8421   -2.3650    0.6216 C.ar    1  UNL1        0.0395
     10 C           0.5365   -2.5298    0.9236 C.ar    1  UNL1       -0.0066
     11 C           1.1626   -1.3402    0.6074 C.ar    1  UNL1        0.1370
     12 O           0.2480   -0.4607    0.1067 O.2     1  UNL1       -0.4541
     13 C          -0.9695   -1.0761    0.1135 C.ar    1  UNL1        0.1468
     14 C          -2.1803   -0.5497   -0.3059 C.ar    1  UNL1        0.0506
     15 C          -2.3897    0.7833   -0.8584 C.ar    1  UNL1       -0.0091
     16 C          -1.5563    1.8002   -1.1263 C.2     1  UNL1       -0.0718
     17 C           2.5339   -0.8904    0.6669 C.ar    1  UNL1        0.0280
     18 C           3.6606   -1.7490    0.5623 C.ar    1  UNL1       -0.0504
     19 C           5.0313   -1.3046    0.6227 C.ar    1  UNL1       -0.0604
     20 C           5.4251    0.0411    0.8013 C.ar    1  UNL1       -0.0510
     21 C           4.3086    0.8577    0.9126 C.ar    1  UNL1        0.0205
     22 C           4.3018    2.2118    1.1114 C.ar    1  UNL1        0.0994
     23 O           3.0095    2.6526    1.1906 O.2     1  UNL1       -0.4698
     24 C           2.1920    1.5650    1.0388 C.ar    1  UNL1        0.1001
     25 C           2.9454    0.4335    0.8507 C.ar    1  UNL1        0.0305
     26 H          -2.2596    3.8354   -1.0627 H       1  UNL1        0.0350
     27 H          -1.9947    3.1913   -2.7113 H       1  UNL1        0.0350
     28 H          -4.5986    2.9659   -2.0762 H       1  UNL1        0.0581
     29 H          -5.8541    0.5775   -1.3547 H       1  UNL1        0.0624
     30 H          -5.4383   -1.6826   -0.4237 H       1  UNL1        0.0639
     31 H          -1.9757   -4.1739    1.1020 H       1  UNL1        0.0837
     32 H           1.0135   -3.4083    1.3344 H       1  UNL1        0.0662
     33 H          -0.4889    1.8130   -0.9703 H       1  UNL1        0.0581
     34 H           3.4941   -2.8167    0.4134 H       1  UNL1        0.0625
     35 H           5.8130   -2.0594    0.5224 H       1  UNL1        0.0618
     36 H           6.4556    0.3628    0.8481 H       1  UNL1        0.0625
     37 H           5.0610    2.9729    1.2219 H       1  UNL1        0.1035
     38 H           1.1333    1.7749    1.0947 H       1  UNL1        0.1036
@<TRIPOS>BOND
     1     1     2    1
     2     2     3    2
     3     3     4   ar
     4     4     5   ar
     5     5     6   ar
     6     6     7   ar
     7     7     8   ar
     8     8     9   ar
     9     9    10   ar
    10    10    11   ar
    11    11    12   ar
    12    12    13   ar
    13    13    14   ar
    14    14    15   ar
    15    15    16    2
    16    11    17    1
    17    17    18   ar
    18    18    19   ar
    19    19    20   ar
    20    20    21   ar
    21    21    22   ar
    22    22    23   ar
    23    23    24   ar
    24    24    25   ar
    25    16     1    1
    26    25    17   ar
    27    15     3   ar
    28    25    21   ar
    29    14     6   ar
    30    13     9   ar
    31     1    26    1
    32     1    27    1
    33     2    28    1
    34     4    29    1
    35     5    30    1
    36     8    31    1
    37    10    32    1
    38    16    33    1
    39    18    34    1
    40    19    35    1
    41    20    36    1
    42    22    37    1
    43    24    38    1
