@<TRIPOS>MOLECULE
*****
 40 46 0 0 0
SMALL
GASTEIGER

@<TRIPOS>ATOM
      1 SI          0.5977   -2.1539    3.0216 Si      1  UNL1        0.0000
      2 C          -0.8357   -1.7631    1.9043 C.2     1  UNL1        0.0000
      3 C          -0.4583   -1.0014    0.8549 C.ar    1  UNL1        0.0000
      4 C          -1.3892   -0.3874   -0.0940 C.ar    1  UNL1        0.0000
      5 C          -0.8918    0.5409   -0.9388 C.ar    1  UNL1        0.0000
      6 C           0.5492    0.8618   -1.0205 C.ar    1  UNL1        0.0000
      7 C           0.9692    1.8460   -1.8995 C.ar    1  UNL1        0.0000
      8 N           2.2597    2.1559   -2.1393 N.ar    1  UNL1        0.0000
      9 C           3.2112    1.4145   -1.5722 C.ar    1  UNL1        0.0000
     10 C           4.5136    1.7636   -1.9546 C.ar    1  UNL1        0.0000
     11 C           5.6803    1.0955   -1.5628 C.ar    1  UNL1        0.0000
     12 C           5.4719   -0.0375   -0.7617 C.ar    1  UNL1        0.0000
     13 N           6.4436   -0.8558   -0.3318 N.ar    1  UNL1        0.0000
     14 S           5.6958   -2.0758    0.4972 S.2     1  UNL1        0.0000
     15 N           4.1185   -1.6035    0.3644 N.ar    1  UNL1        0.0000
     16 C           4.0839   -0.4418   -0.3136 C.ar    1  UNL1        0.0000
     17 C           2.9114    0.3453   -0.6692 C.ar    1  UNL1        0.0000
     18 C           1.5367    0.1565   -0.2984 C.ar    1  UNL1        0.0000
     19 C           1.0005   -0.6999    0.7989 C.ar    1  UNL1        0.0000
     20 C           1.6644   -1.1215    1.8951 C.2     1  UNL1        0.0000
     21 C          -2.7975   -0.6490   -0.1740 C.ar    1  UNL1        0.0000
     22 S          -3.3532   -2.2127   -0.6845 S.2     1  UNL1        0.0000
     23 C          -5.0049   -1.7811   -0.5374 C.ar    1  UNL1        0.0000
     24 C          -5.1463   -0.4830   -0.1248 C.ar    1  UNL1        0.0000
     25 N          -6.3607    0.1046    0.0625 N.ar    1  UNL1        0.0000
     26 C          -6.2115    1.3950    0.4700 C.ar    1  UNL1        0.0000
     27 C          -4.9854    2.0415    0.6686 C.ar    1  UNL1        0.0000
     28 N          -3.7609    1.4764    0.4844 N.ar    1  UNL1        0.0000
     29 C          -3.8782    0.1760    0.0802 C.ar    1  UNL1        0.0000
     30 H           0.9585   -3.5921    3.0040 H       1  UNL1        0.0000
     31 H           0.4460   -1.5516    4.3682 H       1  UNL1        0.0000
     32 H          -1.8363   -2.0622    2.1727 H       1  UNL1        0.0000
     33 H          -1.5448    1.0578   -1.6382 H       1  UNL1        0.0000
     34 H           0.2565    2.4408   -2.4660 H       1  UNL1        0.0000
     35 H           4.6278    2.6178   -2.6260 H       1  UNL1        0.0000
     36 H           6.6653    1.3999   -1.8934 H       1  UNL1        0.0000
     37 H           2.6844   -0.9296    2.1769 H       1  UNL1        0.0000
     38 H          -5.7859   -2.4925   -0.7626 H       1  UNL1        0.0000
     39 H          -7.1422    1.9283    0.6428 H       1  UNL1        0.0000
     40 H          -4.9633    3.0772    0.9964 H       1  UNL1        0.0000
@<TRIPOS>BOND
     1     1     2    1
     2     2     3    2
     3     3     4   ar
     4     4     5   ar
     5     5     6   ar
     6     6     7   ar
     7     7     8   ar
     8     8     9   ar
     9     9    10   ar
    10    10    11   ar
    11    11    12   ar
    12    12    13   ar
    13    13    14   ar
    14    14    15   ar
    15    15    16   ar
    16    16    17   ar
    17    17    18   ar
    18    18    19   ar
    19    19    20    2
    20     4    21    1
    21    21    22   ar
    22    22    23   ar
    23    23    24   ar
    24    24    25   ar
    25    25    26   ar
    26    26    27   ar
    27    27    28   ar
    28    28    29   ar
    29    20     1    1
    30    29    21   ar
    31    19     3   ar
    32    29    24   ar
    33    18     6   ar
    34    17     9   ar
    35    16    12   ar
    36     1    30    1
    37     1    31    1
    38     2    32    1
    39     5    33    1
    40     7    34    1
    41    10    35    1
    42    11    36    1
    43    20    37    1
    44    23    38    1
    45    26    39    1
    46    27    40    1
