@<TRIPOS>MOLECULE
*****
 44 50 0 0 0
SMALL
GASTEIGER

@<TRIPOS>ATOM
      1 C          -3.9859    3.2370   -0.9030 C.3     1  UNL1        0.0000
      2 C          -5.3133    2.6648   -0.5249 C.2     1  UNL1        0.0000
      3 C          -5.1401    1.4177   -0.0684 C.ar    1  UNL1        0.0000
      4 C          -6.1610    0.4836    0.3119 C.ar    1  UNL1        0.0000
      5 C          -5.7934   -0.7639    0.6416 C.ar    1  UNL1        0.0000
      6 C          -4.3751   -1.1862    0.6710 C.ar    1  UNL1        0.0000
      7 N          -4.2208   -2.4837    1.0134 N.ar    1  UNL1        0.0000
      8 C          -2.9560   -2.9302    1.1167 C.ar    1  UNL1        0.0000
      9 C          -1.8168   -2.1501    0.9425 C.ar    1  UNL1        0.0000
     10 C          -0.5473   -2.7372    1.1236 C.ar    1  UNL1        0.0000
     11 C           0.6110   -1.9558    1.0003 C.ar    1  UNL1        0.0000
     12 C           2.0033   -2.2134    1.1252 C.ar    1  UNL1        0.0000
     13 C           2.6788   -1.0300    0.9022 C.ar    1  UNL1        0.0000
     14 N           1.7292   -0.0631    0.6773 N.ar    1  UNL1        0.0000
     15 C           0.4653   -0.6070    0.7118 C.ar    1  UNL1        0.0000
     16 C          -0.7886   -0.0041    0.5253 C.ar    1  UNL1        0.0000
     17 C          -1.9743   -0.7814    0.6048 C.ar    1  UNL1        0.0000
     18 C          -3.3018   -0.2924    0.4030 C.ar    1  UNL1        0.0000
     19 C          -3.7158    1.0641   -0.0603 C.ar    1  UNL1        0.0000
     20 C          -3.0464    2.1060   -0.5881 C.2     1  UNL1        0.0000
     21 C           4.0821   -0.7510    0.9123 C.ar    1  UNL1        0.0000
     22 S           5.1116   -1.3735    2.1573 S.2     1  UNL1        0.0000
     23 C           6.5198   -0.6080    1.5143 C.ar    1  UNL1        0.0000
     24 C           6.2132    0.0830    0.3741 C.ar    1  UNL1        0.0000
     25 C           7.0474    0.8488   -0.5010 C.2     1  UNL1        0.0000
     26 C           6.4110    1.3866   -1.5645 C.2     1  UNL1        0.0000
     27 SI          4.5563    0.9311   -1.5646 Si      1  UNL1        0.0000
     28 C           4.8331   -0.0139    0.0434 C.ar    1  UNL1        0.0000
     29 H          -3.7494    4.1240   -0.3082 H       1  UNL1        0.0000
     30 H          -3.9540    3.4869   -1.9676 H       1  UNL1        0.0000
     31 H          -6.2570    3.1724   -0.6526 H       1  UNL1        0.0000
     32 H          -7.2029    0.7811    0.2982 H       1  UNL1        0.0000
     33 H          -6.5273   -1.5133    0.9164 H       1  UNL1        0.0000
     34 H          -2.8816   -3.9836    1.3780 H       1  UNL1        0.0000
     35 H          -0.4502   -3.7909    1.3727 H       1  UNL1        0.0000
     36 H           2.4622   -3.1678    1.3493 H       1  UNL1        0.0000
     37 H           1.9279    0.9158    0.5295 H       1  UNL1        0.0000
     38 H          -0.8211    1.0622    0.3608 H       1  UNL1        0.0000
     39 H          -1.9979    2.1794   -0.8136 H       1  UNL1        0.0000
     40 H           7.4746   -0.7225    2.0076 H       1  UNL1        0.0000
     41 H           8.1074    0.9797   -0.3153 H       1  UNL1        0.0000
     42 H           6.8354    1.9932   -2.3482 H       1  UNL1        0.0000
     43 H           3.6927    2.1265   -1.3820 H       1  UNL1        0.0000
     44 H           4.2157    0.0789   -2.7295 H       1  UNL1        0.0000
@<TRIPOS>BOND
     1     1     2    1
     2     2     3    2
     3     3     4   ar
     4     4     5   ar
     5     5     6   ar
     6     6     7   ar
     7     7     8   ar
     8     8     9   ar
     9     9    10   ar
    10    10    11   ar
    11    11    12   ar
    12    12    13   ar
    13    13    14   ar
    14    14    15   ar
    15    15    16   ar
    16    16    17   ar
    17    17    18   ar
    18    18    19   ar
    19    19    20    2
    20    13    21    1
    21    21    22   ar
    22    22    23   ar
    23    23    24   ar
    24    24    25    1
    25    25    26    2
    26    26    27    1
    27    27    28    1
    28    20     1    1
    29    28    21   ar
    30    19     3   ar
    31    28    24   ar
    32    18     6   ar
    33    17     9   ar
    34    15    11   ar
    35     1    29    1
    36     1    30    1
    37     2    31    1
    38     4    32    1
    39     5    33    1
    40     8    34    1
    41    10    35    1
    42    12    36    1
    43    14    37    1
    44    16    38    1
    45    20    39    1
    46    23    40    1
    47    25    41    1
    48    26    42    1
    49    27    43    1
    50    27    44    1
