@<TRIPOS>MOLECULE
*****
 46 53 0 0 0
SMALL
GASTEIGER

@<TRIPOS>ATOM
      1 C          -6.2530   -1.2133    1.4068 C.3     1  UNL1       -0.0148
      2 C          -6.5467    0.2040    1.0118 C.2     1  UNL1       -0.0725
      3 C          -5.4096    0.7995    0.6269 C.ar    1  UNL1       -0.0210
      4 C          -5.2133    2.1817    0.2369 C.ar    1  UNL1       -0.0508
      5 C          -3.9672    2.6156   -0.0389 C.ar    1  UNL1       -0.0181
      6 C          -2.8906    1.6731    0.0309 C.ar    1  UNL1        0.1369
      7 O          -1.5780    1.9762   -0.1966 O.2     1  UNL1       -0.4545
      8 C          -0.8462    0.8294   -0.0775 C.ar    1  UNL1        0.1409
      9 C           0.5724    0.7445   -0.2104 C.ar    1  UNL1        0.0076
     10 C           1.6149    1.7921   -0.4507 C.3     1  UNL1        0.0028
     11 C           2.9068    0.9871   -0.4555 C.2     1  UNL1       -0.0251
     12 C           2.5922   -0.3073   -0.2470 C.2     1  UNL1       -0.0490
     13 C           1.1631   -0.4670   -0.0947 C.ar    1  UNL1       -0.0103
     14 C           0.3452   -1.6414    0.1265 C.ar    1  UNL1       -0.0136
     15 C           0.7156   -2.9288    0.1877 C.2     1  UNL1       -0.0719
     16 C          -0.5026   -3.7900    0.3386 C.3     1  UNL1       -0.0148
     17 C          -1.6207   -2.7848    0.3447 C.2     1  UNL1       -0.0718
     18 C          -1.1216   -1.5452    0.2577 C.ar    1  UNL1       -0.0099
     19 C          -1.7106   -0.2441    0.1911 C.ar    1  UNL1        0.0362
     20 C          -2.9989    0.3091    0.3447 C.ar    1  UNL1        0.0359
     21 C          -4.2974   -0.1618    0.7026 C.ar    1  UNL1       -0.0104
     22 C          -4.7689   -1.3176    1.1872 C.2     1  UNL1       -0.0718
     23 C           4.2328    1.4573   -0.6415 C.ar    1  UNL1        0.0585
     24 S           4.6059    3.1434   -0.9022 S.2     1  UNL1       -0.0926
     25 C           6.3168    2.8724   -1.0244 C.ar    1  UNL1       -0.0129
     26 C           6.5305    1.5507   -0.8673 C.ar    1  UNL1        0.0278
     27 C           7.5914    0.6340   -0.8431 C.ar    1  UNL1       -0.0156
     28 C           6.9862   -0.6082   -0.6208 C.ar    1  UNL1        0.0932
     29 O           5.6103   -0.5559   -0.5002 O.2     1  UNL1       -0.4618
     30 C           5.4073    0.7841   -0.6604 C.ar    1  UNL1        0.1492
     31 H          -6.7959   -1.9218    0.7743 H       1  UNL1        0.0350
     32 H          -6.5060   -1.3873    2.4569 H       1  UNL1        0.0350
     33 H          -7.5202    0.6654    1.0723 H       1  UNL1        0.0581
     34 H          -6.0649    2.8508    0.1971 H       1  UNL1        0.0625
     35 H          -3.7592    3.6410   -0.3184 H       1  UNL1        0.0655
     36 H           1.4561    2.2881   -1.4141 H       1  UNL1        0.0363
     37 H           1.6162    2.5346    0.3543 H       1  UNL1        0.0363
     38 H           3.2702   -1.1454   -0.1926 H       1  UNL1        0.0627
     39 H           1.7226   -3.3072    0.1030 H       1  UNL1        0.0581
     40 H          -0.4753   -4.3552    1.2747 H       1  UNL1        0.0350
     41 H          -0.6014   -4.4791   -0.5054 H       1  UNL1        0.0350
     42 H          -2.6560   -3.0685    0.3743 H       1  UNL1        0.0581
     43 H          -4.2054   -2.1976    1.4345 H       1  UNL1        0.0581
     44 H           7.0079    3.6849   -1.1974 H       1  UNL1        0.0701
     45 H           8.6496    0.8138   -0.9653 H       1  UNL1        0.0655
     46 H           7.3953   -1.6056   -0.5253 H       1  UNL1        0.1030
@<TRIPOS>BOND
     1     1     2    1
     2     2     3    2
     3     3     4   ar
     4     4     5   ar
     5     5     6   ar
     6     6     7   ar
     7     7     8   ar
     8     8     9   ar
     9     9    10    1
    10    10    11    1
    11    11    12    2
    12    12    13    1
    13    13    14   ar
    14    14    15    2
    15    15    16    1
    16    16    17    1
    17    17    18    2
    18    18    19   ar
    19    19    20   ar
    20    20    21   ar
    21    21    22    2
    22    11    23    1
    23    23    24   ar
    24    24    25   ar
    25    25    26   ar
    26    26    27   ar
    27    27    28   ar
    28    28    29   ar
    29    29    30   ar
    30    22     1    1
    31    30    23   ar
    32    21     3   ar
    33    30    26   ar
    34    20     6   ar
    35    19     8   ar
    36    13     9   ar
    37    18    14   ar
    38     1    31    1
    39     1    32    1
    40     2    33    1
    41     4    34    1
    42     5    35    1
    43    10    36    1
    44    10    37    1
    45    12    38    1
    46    15    39    1
    47    16    40    1
    48    16    41    1
    49    17    42    1
    50    22    43    1
    51    25    44    1
    52    27    45    1
    53    28    46    1
