@<TRIPOS>MOLECULE
*****
 47 54 0 0 0
SMALL
GASTEIGER

@<TRIPOS>ATOM
      1 C          -6.2970   -0.9969    1.4024 C.3     1  UNL1       -0.0148
      2 C          -6.7876   -0.2372    0.2026 C.2     1  UNL1       -0.0725
      3 C          -5.7375    0.2554   -0.4638 C.ar    1  UNL1       -0.0212
      4 C          -5.7368    0.9724   -1.7221 C.ar    1  UNL1       -0.0532
      5 C          -4.5594    1.2432   -2.3188 C.ar    1  UNL1       -0.0468
      6 C          -3.3501    0.8473   -1.6518 C.ar    1  UNL1        0.0211
      7 S          -1.8231    1.0194   -2.3928 S.2     1  UNL1       -0.0875
      8 C          -1.0081    0.4210   -1.0126 C.ar    1  UNL1        0.0302
      9 C          -1.8894    0.1574    0.0397 C.ar    1  UNL1        0.0055
     10 C          -3.2495    0.2579   -0.3853 C.ar    1  UNL1        0.0049
     11 C          -4.4921   -0.1196    0.2250 C.ar    1  UNL1       -0.0130
     12 C          -4.8043   -0.9082    1.2593 C.2     1  UNL1       -0.0719
     13 C          -1.3079   -0.2026    1.2996 C.ar    1  UNL1       -0.0124
     14 C          -1.8069   -0.1840    2.5475 C.2     1  UNL1       -0.0719
     15 C          -0.7473   -0.5758    3.5354 C.3     1  UNL1       -0.0148
     16 C           0.4618   -0.7351    2.6613 C.2     1  UNL1       -0.0719
     17 C           0.1290   -0.4959    1.3772 C.ar    1  UNL1       -0.0133
     18 C           1.0185   -0.3448    0.2084 C.ar    1  UNL1       -0.0059
     19 C           2.3762   -0.6638    0.2391 C.ar    1  UNL1       -0.0268
     20 C           3.1543   -0.3796   -0.8775 C.ar    1  UNL1        0.0801
     21 N           2.6633    0.2061   -1.9950 N.ar    1  UNL1       -0.2537
     22 C           1.3277    0.4505   -2.0265 C.ar    1  UNL1        0.0371
     23 C           0.4562    0.1978   -0.9704 C.ar    1  UNL1        0.0152
     24 C           4.5790   -0.6515   -0.8948 C.ar    1  UNL1        0.0614
     25 S           5.2556   -2.2119   -0.5542 S.2     1  UNL1       -0.0924
     26 C           6.8994   -1.6316   -0.6433 C.ar    1  UNL1       -0.0145
     27 C           6.8551   -0.3171   -0.9493 C.ar    1  UNL1        0.0073
     28 C           7.6982    0.8028   -1.1690 C.ar    1  UNL1       -0.0361
     29 C           6.8584    1.9191   -1.3944 C.ar    1  UNL1        0.0028
     30 N           5.5118    1.5614   -1.3598 N.ar    1  UNL1       -0.3597
     31 C           5.5963    0.2204   -1.0934 C.ar    1  UNL1        0.0629
     32 H          -6.6377   -2.0393    1.3926 H       1  UNL1        0.0350
     33 H          -6.6283   -0.5125    2.3288 H       1  UNL1        0.0350
     34 H          -7.8269   -0.1471   -0.0797 H       1  UNL1        0.0581
     35 H          -6.6799    1.2498   -2.1817 H       1  UNL1        0.0624
     36 H          -4.5202    1.7606   -3.2709 H       1  UNL1        0.0629
     37 H          -4.1220   -1.4460    1.8959 H       1  UNL1        0.0581
     38 H          -2.8017    0.1141    2.8366 H       1  UNL1        0.0581
     39 H          -1.0010   -1.5112    4.0467 H       1  UNL1        0.0350
     40 H          -0.5909    0.2172    4.2759 H       1  UNL1        0.0350
     41 H           1.4503   -0.9262    3.0530 H       1  UNL1        0.0581
     42 H           2.8290   -1.1013    1.1212 H       1  UNL1        0.0645
     43 H           0.9830    0.8634   -2.9726 H       1  UNL1        0.0836
     44 H           7.7352   -2.2875   -0.4548 H       1  UNL1        0.0700
     45 H           8.7793    0.8309   -1.1462 H       1  UNL1        0.0639
     46 H           7.1200    2.9539   -1.5797 H       1  UNL1        0.0807
     47 H           4.6679    2.1048   -1.5078 H       1  UNL1        0.1654
@<TRIPOS>BOND
     1     1     2    1
     2     2     3    2
     3     3     4   ar
     4     4     5   ar
     5     5     6   ar
     6     6     7   ar
     7     7     8   ar
     8     8     9   ar
     9     9    10   ar
    10    10    11   ar
    11    11    12    2
    12     9    13   ar
    13    13    14    2
    14    14    15    1
    15    15    16    1
    16    16    17    2
    17    17    18   ar
    18    18    19   ar
    19    19    20   ar
    20    20    21   ar
    21    21    22   ar
    22    22    23   ar
    23    20    24    1
    24    24    25   ar
    25    25    26   ar
    26    26    27   ar
    27    27    28   ar
    28    28    29   ar
    29    29    30   ar
    30    30    31   ar
    31    12     1    1
    32    17    13   ar
    33    23    18   ar
    34    31    24   ar
    35    11     3   ar
    36    31    27   ar
    37    10     6   ar
    38    23     8   ar
    39     1    32    1
    40     1    33    1
    41     2    34    1
    42     4    35    1
    43     5    36    1
    44    12    37    1
    45    14    38    1
    46    15    39    1
    47    15    40    1
    48    16    41    1
    49    19    42    1
    50    22    43    1
    51    26    44    1
    52    28    45    1
    53    29    46    1
    54    30    47    1
