@<TRIPOS>MOLECULE
*****
 42 48 0 0 0
SMALL
GASTEIGER

@<TRIPOS>ATOM
      1 C          -5.8942    1.5964   -1.5124 C.3     1  UNL1       -0.0148
      2 C          -6.4545    0.8958   -0.3099 C.2     1  UNL1       -0.0725
      3 C          -5.4504    0.3564    0.3945 C.ar    1  UNL1       -0.0212
      4 C          -5.5271   -0.4067    1.6210 C.ar    1  UNL1       -0.0532
      5 C          -4.3894   -0.8670    2.1780 C.ar    1  UNL1       -0.0468
      6 C          -3.1450   -0.5761    1.5234 C.ar    1  UNL1        0.0211
      7 S          -1.6658   -1.1073    2.1420 S.2     1  UNL1       -0.0876
      8 C          -0.7273   -0.4002    0.8682 C.ar    1  UNL1        0.0288
      9 C          -1.5863    0.2574   -0.0413 C.ar    1  UNL1       -0.0019
     10 C          -0.9924    0.9013   -1.1537 C.ar    1  UNL1       -0.0523
     11 C           0.3870    0.8992   -1.3582 C.ar    1  UNL1       -0.0534
     12 C           1.2439    0.2607   -0.4764 C.ar    1  UNL1       -0.0155
     13 C           2.6454    0.3119   -0.7571 C.ar    1  UNL1       -0.0427
     14 C           3.6553   -0.2740    0.0364 C.ar    1  UNL1        0.0260
     15 C           5.0627   -0.1519   -0.2797 C.ar    1  UNL1        0.1354
     16 C           6.2168    0.0675    0.4470 C.ar    1  UNL1       -0.0159
     17 C           7.2857    0.0959   -0.4822 C.ar    1  UNL1       -0.0233
     18 C           6.7196   -0.0952   -1.7193 C.ar    1  UNL1        0.0926
     19 O           5.3742   -0.2362   -1.6088 O.2     1  UNL1       -0.4629
     20 C           3.1281   -0.9518    1.1461 C.ar    1  UNL1        0.0004
     21 C           3.8972   -1.6685    2.0358 C.ar    1  UNL1       -0.0159
     22 S           2.9585   -2.3742    3.2763 S.2     1  UNL1       -0.1038
     23 C           1.5031   -1.7599    2.6071 C.ar    1  UNL1       -0.0160
     24 C           1.6986   -1.0227    1.4600 C.ar    1  UNL1       -0.0014
     25 C           0.6875   -0.4115    0.6666 C.ar    1  UNL1        0.0047
     26 C          -2.9717    0.1448    0.3495 C.ar    1  UNL1        0.0043
     27 C          -4.1701    0.6470   -0.2653 C.ar    1  UNL1       -0.0130
     28 C          -4.4146    1.3645   -1.3709 C.2     1  UNL1       -0.0719
     29 H          -6.2741    1.1546   -2.4383 H       1  UNL1        0.0350
     30 H          -6.1280    2.6649   -1.4903 H       1  UNL1        0.0350
     31 H          -7.5046    0.8446   -0.0669 H       1  UNL1        0.0581
     32 H          -6.4940   -0.5968    2.0722 H       1  UNL1        0.0624
     33 H          -4.4083   -1.4430    3.0973 H       1  UNL1        0.0629
     34 H          -1.6073    1.4193   -1.8814 H       1  UNL1        0.0624
     35 H           0.7738    1.4162   -2.2352 H       1  UNL1        0.0624
     36 H           2.9739    0.8540   -1.6477 H       1  UNL1        0.0631
     37 H           6.2804    0.2053    1.5172 H       1  UNL1        0.0655
     38 H           8.3362    0.2455   -0.2767 H       1  UNL1        0.0649
     39 H           7.1135   -0.1491   -2.7246 H       1  UNL1        0.1029
     40 H           4.9639   -1.8371    2.0399 H       1  UNL1        0.0700
     41 H           0.5994   -2.0145    3.1326 H       1  UNL1        0.0700
     42 H          -3.6993    1.7403   -2.0807 H       1  UNL1        0.0581
@<TRIPOS>BOND
     1     1     2    1
     2     2     3    2
     3     3     4   ar
     4     4     5   ar
     5     5     6   ar
     6     6     7   ar
     7     7     8   ar
     8     8     9   ar
     9     9    10   ar
    10    10    11   ar
    11    11    12   ar
    12    12    13   ar
    13    13    14   ar
    14    14    15    1
    15    15    16   ar
    16    16    17   ar
    17    17    18   ar
    18    18    19   ar
    19    14    20   ar
    20    20    21   ar
    21    21    22   ar
    22    22    23   ar
    23    23    24   ar
    24    24    25   ar
    25     9    26   ar
    26    26    27   ar
    27    27    28    2
    28    28     1    1
    29    27     3   ar
    30    26     6   ar
    31    25     8   ar
    32    25    12   ar
    33    19    15   ar
    34    24    20   ar
    35     1    29    1
    36     1    30    1
    37     2    31    1
    38     4    32    1
    39     5    33    1
    40    10    34    1
    41    11    35    1
    42    13    36    1
    43    16    37    1
    44    17    38    1
    45    18    39    1
    46    21    40    1
    47    23    41    1
    48    28    42    1
