@<TRIPOS>MOLECULE
*****
 39 44 0 0 0
SMALL
GASTEIGER

@<TRIPOS>ATOM
      1 C          -5.8763    1.5167    0.6434 C.3     1  UNL1       -0.0148
      2 C          -6.2918    0.0849    0.4729 C.2     1  UNL1       -0.0725
      3 C          -5.2005   -0.6759    0.3127 C.ar    1  UNL1       -0.0212
      4 C          -5.1275   -2.1074    0.1164 C.ar    1  UNL1       -0.0532
      5 C          -3.9199   -2.6894   -0.0258 C.ar    1  UNL1       -0.0468
      6 C          -2.7519   -1.8553    0.0243 C.ar    1  UNL1        0.0211
      7 S          -1.1899   -2.4942   -0.1442 S.2     1  UNL1       -0.0876
      8 C          -0.4327   -0.9463    0.0236 C.ar    1  UNL1        0.0296
      9 C          -1.3886    0.0673    0.2102 C.ar    1  UNL1       -0.0019
     10 C          -0.9055    1.3926    0.3624 C.ar    1  UNL1       -0.0523
     11 C           0.4628    1.6854    0.3294 C.ar    1  UNL1       -0.0533
     12 C           1.4044    0.6765    0.1443 C.ar    1  UNL1       -0.0133
     13 C           2.7797    0.9528    0.1088 C.ar    1  UNL1       -0.0265
     14 C           3.6813   -0.0905   -0.0787 C.ar    1  UNL1        0.0877
     15 N           3.2856   -1.3741   -0.2300 N.ar    1  UNL1       -0.2529
     16 C           1.9566   -1.6284   -0.1941 C.ar    1  UNL1        0.0371
     17 C           0.9703   -0.6517   -0.0110 C.ar    1  UNL1        0.0146
     18 C           5.1348    0.0929   -0.1305 C.ar    1  UNL1        0.0649
     19 C           6.1382   -0.8504   -0.3091 C.ar    1  UNL1       -0.0349
     20 C           7.3895   -0.1921   -0.2869 C.ar    1  UNL1       -0.0438
     21 C           7.1364    1.1444   -0.0952 C.ar    1  UNL1        0.0022
     22 N           5.7781    1.3069   -0.0023 N.ar    1  UNL1       -0.3595
     23 C          -2.7237   -0.4756    0.2082 C.ar    1  UNL1        0.0043
     24 C          -3.9990    0.1673    0.3622 C.ar    1  UNL1       -0.0130
     25 C          -4.3765    1.4391    0.5533 C.2     1  UNL1       -0.0719
     26 H          -6.2856    2.1433   -0.1545 H       1  UNL1        0.0350
     27 H          -6.1915    1.9052    1.6163 H       1  UNL1        0.0350
     28 H          -7.3145   -0.2593    0.4810 H       1  UNL1        0.0581
     29 H          -6.0414   -2.6893    0.0867 H       1  UNL1        0.0624
     30 H          -3.8277   -3.7602   -0.1747 H       1  UNL1        0.0629
     31 H          -1.5976    2.2149    0.5093 H       1  UNL1        0.0624
     32 H           0.7750    2.7207    0.4517 H       1  UNL1        0.0624
     33 H           3.1244    1.9726    0.2275 H       1  UNL1        0.0645
     34 H           1.7091   -2.6783   -0.3219 H       1  UNL1        0.0836
     35 H           5.9685   -1.9122   -0.4419 H       1  UNL1        0.0639
     36 H           8.3651   -0.6469   -0.3987 H       1  UNL1        0.0633
     37 H           7.8027    1.9928   -0.0169 H       1  UNL1        0.0807
     38 H           5.3230    2.1966    0.1402 H       1  UNL1        0.1654
     39 H          -3.7433    2.3046    0.6361 H       1  UNL1        0.0581
@<TRIPOS>BOND
     1     1     2    1
     2     2     3    2
     3     3     4   ar
     4     4     5   ar
     5     5     6   ar
     6     6     7   ar
     7     7     8   ar
     8     8     9   ar
     9     9    10   ar
    10    10    11   ar
    11    11    12   ar
    12    12    13   ar
    13    13    14   ar
    14    14    15   ar
    15    15    16   ar
    16    16    17   ar
    17    14    18    1
    18    18    19   ar
    19    19    20   ar
    20    20    21   ar
    21    21    22   ar
    22     9    23   ar
    23    23    24   ar
    24    24    25    2
    25    25     1    1
    26    24     3   ar
    27    23     6   ar
    28    17     8   ar
    29    22    18   ar
    30    17    12   ar
    31     1    26    1
    32     1    27    1
    33     2    28    1
    34     4    29    1
    35     5    30    1
    36    10    31    1
    37    11    32    1
    38    13    33    1
    39    16    34    1
    40    19    35    1
    41    20    36    1
    42    21    37    1
    43    22    38    1
    44    25    39    1
