@<TRIPOS>MOLECULE
*****
 40 46 0 0 0
SMALL
GASTEIGER

@<TRIPOS>ATOM
      1 C          -6.5193    1.3820   -0.6043 C.3     1  UNL1       -0.0148
      2 C          -6.8806    0.0352   -0.0362 C.2     1  UNL1       -0.0725
      3 C          -5.7595   -0.6522    0.2232 C.ar    1  UNL1       -0.0211
      4 C          -5.6126   -1.9855    0.7737 C.ar    1  UNL1       -0.0532
      5 C          -4.3754   -2.4952    0.9566 C.ar    1  UNL1       -0.0468
      6 C          -3.2475   -1.6837    0.5930 C.ar    1  UNL1        0.0227
      7 S          -1.6261   -2.2102    0.7741 S.2     1  UNL1       -0.0830
      8 C          -1.0497   -0.7545    0.1558 C.ar    1  UNL1        0.0815
      9 C          -2.0166    0.1583   -0.2010 C.ar    1  UNL1        0.0899
     10 N          -1.6966    1.3795   -0.7158 N.ar    1  UNL1       -0.2530
     11 C          -0.3974    1.7333   -0.8929 C.ar    1  UNL1        0.0391
     12 C           0.6837    0.9084   -0.5751 C.ar    1  UNL1        0.0400
     13 C           2.0996    0.9747   -0.6353 C.ar    1  UNL1       -0.0061
     14 C           2.6018   -0.2274   -0.1474 C.ar    1  UNL1        0.1432
     15 O           1.5370   -1.0253    0.2085 O.2     1  UNL1       -0.4531
     16 C           0.4082   -0.3325   -0.0532 C.ar    1  UNL1        0.1529
     17 C           3.9697   -0.6485   -0.0037 C.ar    1  UNL1        0.0585
     18 S           4.3575   -2.2165    0.6355 S.2     1  UNL1       -0.0927
     19 C           6.0594   -1.9699    0.4960 C.ar    1  UNL1       -0.0162
     20 C           6.2914   -0.7334   -0.0199 C.ar    1  UNL1       -0.0141
     21 C           7.4408    0.0220   -0.3572 C.2     1  UNL1       -0.0574
     22 C           7.0545    1.2225   -0.8445 C.2     1  UNL1       -0.0791
     23 C           5.5285    1.3496   -0.8635 C.3     1  UNL1       -0.0074
     24 C           5.1290    0.0232   -0.3069 C.ar    1  UNL1       -0.0188
     25 C          -3.3021   -0.3928    0.0579 C.ar    1  UNL1        0.0227
     26 C          -4.6002    0.1642   -0.1432 C.ar    1  UNL1       -0.0115
     27 C          -5.0172    1.3423   -0.6229 C.2     1  UNL1       -0.0719
     28 H          -6.8836    2.1893    0.0379 H       1  UNL1        0.0350
     29 H          -6.9222    1.5029   -1.6141 H       1  UNL1        0.0350
     30 H          -7.8910   -0.3052    0.1288 H       1  UNL1        0.0581
     31 H          -6.4996   -2.5533    1.0304 H       1  UNL1        0.0624
     32 H          -4.2302   -3.4893    1.3662 H       1  UNL1        0.0629
     33 H          -0.2482    2.7258   -1.3087 H       1  UNL1        0.0837
     34 H           2.6862    1.8070   -0.9947 H       1  UNL1        0.0662
     35 H           6.7596   -2.7360    0.7971 H       1  UNL1        0.0699
     36 H           8.4605   -0.3170   -0.2396 H       1  UNL1        0.0621
     37 H           7.7223    2.0016   -1.1810 H       1  UNL1        0.0575
     38 H           5.2026    2.1747   -0.2241 H       1  UNL1        0.0356
     39 H           5.1662    1.4883   -1.8860 H       1  UNL1        0.0356
     40 H          -4.3830    2.1436   -0.9707 H       1  UNL1        0.0581
@<TRIPOS>BOND
     1     1     2    1
     2     2     3    2
     3     3     4   ar
     4     4     5   ar
     5     5     6   ar
     6     6     7   ar
     7     7     8   ar
     8     8     9   ar
     9     9    10   ar
    10    10    11   ar
    11    11    12   ar
    12    12    13   ar
    13    13    14   ar
    14    14    15   ar
    15    15    16   ar
    16    14    17    1
    17    17    18   ar
    18    18    19   ar
    19    19    20   ar
    20    20    21    1
    21    21    22    2
    22    22    23    1
    23    23    24    1
    24     9    25   ar
    25    25    26   ar
    26    26    27    2
    27    27     1    1
    28    26     3   ar
    29    25     6   ar
    30    16     8   ar
    31    24    17   ar
    32    16    12   ar
    33    24    20   ar
    34     1    28    1
    35     1    29    1
    36     2    30    1
    37     4    31    1
    38     5    32    1
    39    11    33    1
    40    13    34    1
    41    19    35    1
    42    21    36    1
    43    22    37    1
    44    23    38    1
    45    23    39    1
    46    27    40    1
