@<TRIPOS>MOLECULE
*****
 43 49 0 0 0
SMALL
GASTEIGER

@<TRIPOS>ATOM
      1 C          -6.4785    1.6568    1.3840 C.3     1  UNL1       -0.0148
      2 C          -6.9262    0.3252    0.8550 C.2     1  UNL1       -0.0725
      3 C          -5.8596   -0.3596    0.4205 C.ar    1  UNL1       -0.0212
      4 C          -5.8201   -1.6822   -0.1654 C.ar    1  UNL1       -0.0532
      5 C          -4.6332   -2.1996   -0.5413 C.ar    1  UNL1       -0.0468
      6 C          -3.4517   -1.4080   -0.3416 C.ar    1  UNL1        0.0211
      7 S          -1.9090   -1.9708   -0.7824 S.2     1  UNL1       -0.0878
      8 C          -1.1427   -0.5316   -0.2454 C.ar    1  UNL1        0.0274
      9 C           0.2132   -0.2291   -0.2818 C.ar    1  UNL1       -0.0034
     10 C           1.4241   -0.9749   -0.7621 C.3     1  UNL1        0.0013
     11 C           2.5189    0.0261   -0.4407 C.2     1  UNL1       -0.0332
     12 C           2.0306    1.1583    0.1005 C.2     1  UNL1       -0.0319
     13 C           0.5916    1.0045    0.2123 C.ar    1  UNL1        0.0687
     14 N          -0.2200    1.9294    0.7201 N.ar    1  UNL1       -0.2546
     15 C          -1.5428    1.6308    0.7545 C.ar    1  UNL1        0.0371
     16 C          -2.0562    0.4007    0.2784 C.ar    1  UNL1        0.0159
     17 C          -3.3935   -0.1297    0.2127 C.ar    1  UNL1        0.0058
     18 C          -4.6455    0.4414    0.6204 C.ar    1  UNL1       -0.0129
     19 C          -4.9886    1.6112    1.1773 C.2     1  UNL1       -0.0719
     20 C           3.9118   -0.2496   -0.7536 C.ar    1  UNL1       -0.0133
     21 C           4.3483   -0.7268   -2.0149 C.ar    1  UNL1       -0.0537
     22 C           5.7152   -1.0041   -2.3422 C.ar    1  UNL1       -0.0606
     23 C           6.7882   -0.8443   -1.4419 C.ar    1  UNL1       -0.0535
     24 C           6.3573   -0.3926   -0.1949 C.ar    1  UNL1       -0.0103
     25 C           7.2282   -0.1845    0.8458 C.ar    1  UNL1       -0.0166
     26 S           6.3985    0.3362    2.2559 S.2     1  UNL1       -0.1039
     27 C           4.8703    0.2789    1.4679 C.ar    1  UNL1       -0.0160
     28 C           4.9821   -0.1041    0.1503 C.ar    1  UNL1       -0.0035
     29 H          -6.7246    1.7621    2.4447 H       1  UNL1        0.0350
     30 H          -6.9285    2.4772    0.8173 H       1  UNL1        0.0350
     31 H          -7.9517   -0.0103    0.8361 H       1  UNL1        0.0581
     32 H          -6.7430   -2.2363   -0.2929 H       1  UNL1        0.0624
     33 H          -4.5673   -3.1883   -0.9836 H       1  UNL1        0.0629
     34 H           1.3519   -1.1741   -1.8354 H       1  UNL1        0.0363
     35 H           1.5576   -1.9054   -0.2017 H       1  UNL1        0.0363
     36 H           2.5572    2.0484    0.4009 H       1  UNL1        0.0642
     37 H          -2.1708    2.4066    1.1739 H       1  UNL1        0.0836
     38 H          -4.3385    2.4233    1.4528 H       1  UNL1        0.0581
     39 H           3.6104   -0.8789   -2.8035 H       1  UNL1        0.0624
     40 H           5.9361   -1.3576   -3.3501 H       1  UNL1        0.0618
     41 H           7.8141   -1.0611   -1.7087 H       1  UNL1        0.0624
     42 H           8.3015   -0.3134    0.8692 H       1  UNL1        0.0699
     43 H           3.9849    0.5319    2.0336 H       1  UNL1        0.0700
@<TRIPOS>BOND
     1     1     2    1
     2     2     3    2
     3     3     4   ar
     4     4     5   ar
     5     5     6   ar
     6     6     7   ar
     7     7     8   ar
     8     8     9   ar
     9     9    10    1
    10    10    11    1
    11    11    12    2
    12    12    13    1
    13    13    14   ar
    14    14    15   ar
    15    15    16   ar
    16    16    17   ar
    17    17    18   ar
    18    18    19    2
    19    11    20    1
    20    20    21   ar
    21    21    22   ar
    22    22    23   ar
    23    23    24   ar
    24    24    25   ar
    25    25    26   ar
    26    26    27   ar
    27    27    28   ar
    28    19     1    1
    29    28    20   ar
    30    18     3   ar
    31    28    24   ar
    32    17     6   ar
    33    16     8   ar
    34    13     9   ar
    35     1    29    1
    36     1    30    1
    37     2    31    1
    38     4    32    1
    39     5    33    1
    40    10    34    1
    41    10    35    1
    42    12    36    1
    43    15    37    1
    44    19    38    1
    45    21    39    1
    46    22    40    1
    47    23    41    1
    48    25    42    1
    49    27    43    1
