@<TRIPOS>MOLECULE
*****
 49 56 0 0 0
SMALL
GASTEIGER

@<TRIPOS>ATOM
      1 C           5.6246   -2.0087   -1.6698 C.3     1  UNL1        0.0000
      2 C           6.6372   -1.0275   -1.1486 C.2     1  UNL1        0.0000
      3 C           6.0043   -0.0694   -0.4595 C.ar    1  UNL1        0.0000
      4 C           6.5396    1.0726    0.2358 C.ar    1  UNL1        0.0000
      5 C           5.6707    1.8815    0.8730 C.ar    1  UNL1        0.0000
      6 C           4.2250    1.6318    0.8683 C.ar    1  UNL1        0.0000
      7 C           3.6482    0.5887    0.2174 C.ar    1  UNL1        0.0000
      8 C           2.2121    0.4261    0.2751 C.2     1  UNL1        0.0000
      9 C           1.4867   -0.0143    1.3208 C.2     1  UNL1        0.0000
     10 C           0.0562   -0.0507    1.0418 C.ar    1  UNL1        0.0000
     11 C          -0.4266    0.3541   -0.2319 C.ar    1  UNL1        0.0000
     12 SI          1.1383    0.8538   -1.2321 Si      1  UNL1        0.0000
     13 C          -1.8361    0.3538   -0.6191 C.ar    1  UNL1        0.0000
     14 C          -2.2687    0.7180   -1.9463 C.ar    1  UNL1        0.0000
     15 N          -1.4721    1.0761   -2.9719 N.ar    1  UNL1        0.0000
     16 S          -2.4272    1.3691   -4.2827 S.2     1  UNL1        0.0000
     17 N          -3.9120    1.0705   -3.6319 N.ar    1  UNL1        0.0000
     18 C          -3.7207    0.7256   -2.3428 C.ar    1  UNL1        0.0000
     19 C          -4.7542    0.4120   -1.4083 C.ar    1  UNL1        0.0000
     20 C          -6.1098    0.4734   -1.8157 C.ar    1  UNL1        0.0000
     21 C          -7.1291    0.2386   -0.9058 C.ar    1  UNL1        0.0000
     22 C          -6.8013   -0.0321    0.4114 C.ar    1  UNL1        0.0000
     23 C          -5.4561   -0.0994    0.8068 C.ar    1  UNL1        0.0000
     24 C          -4.3658    0.0749   -0.0830 C.ar    1  UNL1        0.0000
     25 C          -2.9361   -0.0246    0.2817 C.ar    1  UNL1        0.0000
     26 C          -2.3624   -0.4937    1.5234 C.ar    1  UNL1        0.0000
     27 C          -2.9868   -1.1292    2.5760 C.ar    1  UNL1        0.0000
     28 N          -2.0478   -1.4024    3.5498 N.ar    1  UNL1        0.0000
     29 C          -0.8038   -1.0201    3.1211 C.ar    1  UNL1        0.0000
     30 C          -0.9624   -0.4891    1.8654 C.ar    1  UNL1        0.0000
     31 C           4.5655   -0.3202   -0.4693 C.ar    1  UNL1        0.0000
     32 C           4.3265   -1.4449   -1.1618 C.2     1  UNL1        0.0000
     33 H           5.6370   -2.0439   -2.7631 H       1  UNL1        0.0000
     34 H           5.8030   -3.0095   -1.2657 H       1  UNL1        0.0000
     35 H           7.7015   -1.1029   -1.3070 H       1  UNL1        0.0000
     36 H           7.6067    1.2569    0.2392 H       1  UNL1        0.0000
     37 H           6.0227    2.7544    1.4139 H       1  UNL1        0.0000
     38 H           3.6193    2.3477    1.4189 H       1  UNL1        0.0000
     39 H           1.9004   -0.3153    2.2728 H       1  UNL1        0.0000
     40 H           1.4015   -0.0746   -2.3646 H       1  UNL1        0.0000
     41 H           1.1735    2.3113   -1.5278 H       1  UNL1        0.0000
     42 H          -6.3668    0.7203   -2.8445 H       1  UNL1        0.0000
     43 H          -8.1682    0.2934   -1.2174 H       1  UNL1        0.0000
     44 H          -7.5879   -0.1793    1.1478 H       1  UNL1        0.0000
     45 H          -5.2892   -0.2437    1.8663 H       1  UNL1        0.0000
     46 H          -3.9969   -1.4606    2.7519 H       1  UNL1        0.0000
     47 H          -2.2434   -1.8622    4.4299 H       1  UNL1        0.0000
     48 H           0.0689   -1.1910    3.7366 H       1  UNL1        0.0000
     49 H           3.3617   -1.8954   -1.3356 H       1  UNL1        0.0000
@<TRIPOS>BOND
     1     1     2    1
     2     2     3    2
     3     3     4   ar
     4     4     5   ar
     5     5     6   ar
     6     6     7   ar
     7     7     8    1
     8     8     9    2
     9     9    10    1
    10    10    11   ar
    11    11    12    1
    12    11    13   ar
    13    13    14   ar
    14    14    15   ar
    15    15    16   ar
    16    16    17   ar
    17    17    18   ar
    18    18    19   ar
    19    19    20   ar
    20    20    21   ar
    21    21    22   ar
    22    22    23   ar
    23    23    24   ar
    24    24    25   ar
    25    25    26   ar
    26    26    27   ar
    27    27    28   ar
    28    28    29   ar
    29    29    30   ar
    30     7    31   ar
    31    31    32    2
    32    32     1    1
    33    31     3   ar
    34    12     8    1
    35    25    13   ar
    36    30    26   ar
    37    30    10   ar
    38    18    14   ar
    39    24    19   ar
    40     1    33    1
    41     1    34    1
    42     2    35    1
    43     4    36    1
    44     5    37    1
    45     6    38    1
    46     9    39    1
    47    12    40    1
    48    12    41    1
    49    20    42    1
    50    21    43    1
    51    22    44    1
    52    23    45    1
    53    27    46    1
    54    28    47    1
    55    29    48    1
    56    32    49    1
