@<TRIPOS>MOLECULE
*****
 47 53 0 0 0
SMALL
GASTEIGER

@<TRIPOS>ATOM
      1 C          -6.1441    0.9262    1.7564 C.3     1  UNL1        0.0000
      2 C          -7.0675    0.5648    0.6274 C.2     1  UNL1        0.0000
      3 C          -6.3389    0.1834   -0.4295 C.ar    1  UNL1        0.0000
      4 C          -6.7663   -0.2304   -1.7409 C.ar    1  UNL1        0.0000
      5 C          -5.8132   -0.5423   -2.6404 C.ar    1  UNL1        0.0000
      6 C          -4.3838   -0.4795   -2.3161 C.ar    1  UNL1        0.0000
      7 C          -3.9081   -0.1191   -1.0959 C.ar    1  UNL1        0.0000
      8 C          -2.4797   -0.0971   -0.8741 C.2     1  UNL1        0.0000
      9 C          -1.5904    0.7825   -1.3748 C.2     1  UNL1        0.0000
     10 C          -0.2038    0.5201   -0.9695 C.ar    1  UNL1        0.0000
     11 N           0.7723    1.3090   -1.4245 N.ar    1  UNL1        0.0000
     12 C           2.0254    0.9980   -1.0001 C.ar    1  UNL1        0.0000
     13 C           2.3884   -0.0457   -0.1190 C.ar    1  UNL1        0.0000
     14 C           1.3201   -0.8877    0.2802 C.ar    1  UNL1        0.0000
     15 C           1.6330   -2.0062    1.0591 C.ar    1  UNL1        0.0000
     16 N           2.8766   -2.3647    1.4275 N.ar    1  UNL1        0.0000
     17 C           3.8838   -1.5417    1.0614 C.ar    1  UNL1        0.0000
     18 C           5.2161   -2.0635    1.4205 C.ar    1  UNL1        0.0000
     19 C           6.3437   -1.3939    1.1421 C.ar    1  UNL1        0.0000
     20 C           6.2583   -0.0872    0.5364 C.ar    1  UNL1        0.0000
     21 C           7.3295    0.7055    0.3468 C.2     1  UNL1        0.0000
     22 SI          6.8238    2.3827   -0.2773 Si      1  UNL1        0.0000
     23 C           5.0380    1.7973   -0.1972 C.2     1  UNL1        0.0000
     24 C           4.9415    0.4997    0.1671 C.ar    1  UNL1        0.0000
     25 C           3.7076   -0.3311    0.3493 C.ar    1  UNL1        0.0000
     26 C           0.0122   -0.5818   -0.1352 C.ar    1  UNL1        0.0000
     27 SI         -1.6438   -1.4023    0.1954 Si      1  UNL1        0.0000
     28 C          -4.9169    0.2473   -0.1014 C.ar    1  UNL1        0.0000
     29 C          -4.7841    0.6838    1.1611 C.2     1  UNL1        0.0000
     30 H          -6.3132    0.2832    2.6251 H       1  UNL1        0.0000
     31 H          -6.2657    1.9748    2.0435 H       1  UNL1        0.0000
     32 H          -8.1437    0.6220    0.6737 H       1  UNL1        0.0000
     33 H          -7.8215   -0.2755   -1.9810 H       1  UNL1        0.0000
     34 H          -6.0822   -0.8544   -3.6448 H       1  UNL1        0.0000
     35 H          -3.7060   -0.7529   -3.1214 H       1  UNL1        0.0000
     36 H          -1.8226    1.6193   -2.0186 H       1  UNL1        0.0000
     37 H           2.7710    1.6322   -1.4636 H       1  UNL1        0.0000
     38 H           0.8705   -2.6994    1.4041 H       1  UNL1        0.0000
     39 H           5.2441   -3.0351    1.9016 H       1  UNL1        0.0000
     40 H           7.3132   -1.8022    1.4062 H       1  UNL1        0.0000
     41 H           8.3585    0.4779    0.5768 H       1  UNL1        0.0000
     42 H           7.2635    2.6344   -1.6702 H       1  UNL1        0.0000
     43 H           7.0993    3.4650    0.6972 H       1  UNL1        0.0000
     44 H           4.2677    2.5153   -0.4110 H       1  UNL1        0.0000
     45 H          -2.0077   -1.3164    1.6330 H       1  UNL1        0.0000
     46 H          -1.6970   -2.7682   -0.3849 H       1  UNL1        0.0000
     47 H          -3.8580    0.8539    1.6873 H       1  UNL1        0.0000
@<TRIPOS>BOND
     1     1     2    1
     2     2     3    2
     3     3     4   ar
     4     4     5   ar
     5     5     6   ar
     6     6     7   ar
     7     7     8    1
     8     8     9    2
     9     9    10    1
    10    10    11   ar
    11    11    12   ar
    12    12    13   ar
    13    13    14   ar
    14    14    15   ar
    15    15    16   ar
    16    16    17   ar
    17    17    18   ar
    18    18    19   ar
    19    19    20   ar
    20    20    21    2
    21    21    22    1
    22    22    23    1
    23    23    24    2
    24    24    25   ar
    25    14    26   ar
    26    26    27    1
    27     7    28   ar
    28    28    29    2
    29    29     1    1
    30    28     3   ar
    31    27     8    1
    32    26    10   ar
    33    25    13   ar
    34    25    17   ar
    35    24    20   ar
    36     1    30    1
    37     1    31    1
    38     2    32    1
    39     4    33    1
    40     5    34    1
    41     6    35    1
    42     9    36    1
    43    12    37    1
    44    15    38    1
    45    18    39    1
    46    19    40    1
    47    21    41    1
    48    22    42    1
    49    22    43    1
    50    23    44    1
    51    27    45    1
    52    27    46    1
    53    29    47    1
