@<TRIPOS>MOLECULE
*****
 41 46 0 0 0
SMALL
GASTEIGER

@<TRIPOS>ATOM
      1 C          -5.2482    1.5459    1.0988 C.3     1  UNL1        0.0000
      2 C          -6.1263    0.4900    0.4886 C.2     1  UNL1        0.0000
      3 C          -5.3565   -0.4875   -0.0066 C.ar    1  UNL1        0.0000
      4 C          -5.7328   -1.7121   -0.6641 C.ar    1  UNL1        0.0000
      5 C          -4.7461   -2.5442   -1.0500 C.ar    1  UNL1        0.0000
      6 C          -3.3301   -2.2319   -0.8264 C.ar    1  UNL1        0.0000
      7 C          -2.9005   -1.0884   -0.2326 C.ar    1  UNL1        0.0000
      8 C          -1.4812   -0.8725   -0.0621 C.2     1  UNL1        0.0000
      9 C          -0.6530   -1.5042    0.7933 C.2     1  UNL1        0.0000
     10 C           0.7411   -1.0536    0.7026 C.ar    1  UNL1        0.0000
     11 N           1.6669   -1.5993    1.4976 N.ar    1  UNL1        0.0000
     12 C           2.9209   -1.1178    1.3377 C.ar    1  UNL1        0.0000
     13 C           3.3068   -0.1158    0.4222 C.ar    1  UNL1        0.0000
     14 C           2.2915    0.4257   -0.3933 C.ar    1  UNL1        0.0000
     15 N           2.5376    1.3853   -1.3026 N.ar    1  UNL1        0.0000
     16 C           3.8027    1.8411   -1.4338 C.ar    1  UNL1        0.0000
     17 C           4.8848    1.3877   -0.6901 C.ar    1  UNL1        0.0000
     18 C           6.1769    1.9014   -0.8730 C.ar    1  UNL1        0.0000
     19 C           7.2029    1.4000   -0.0952 C.ar    1  UNL1        0.0000
     20 N           7.0280    0.4414    0.8320 N.ar    1  UNL1        0.0000
     21 C           5.7691   -0.0372    0.9879 C.ar    1  UNL1        0.0000
     22 C           4.6406    0.3853    0.2633 C.ar    1  UNL1        0.0000
     23 C           1.0097   -0.0572   -0.2392 C.ar    1  UNL1        0.0000
     24 SI         -0.5593    0.4068   -1.1219 Si      1  UNL1        0.0000
     25 C          -3.9479   -0.1714    0.2172 C.ar    1  UNL1        0.0000
     26 C          -3.8658    1.0019    0.8641 C.2     1  UNL1        0.0000
     27 H          -5.3824    2.5084    0.5966 H       1  UNL1        0.0000
     28 H          -5.4506    1.6556    2.1683 H       1  UNL1        0.0000
     29 H          -7.2043    0.5244    0.4710 H       1  UNL1        0.0000
     30 H          -6.7781   -1.9432   -0.8283 H       1  UNL1        0.0000
     31 H          -4.9763   -3.4822   -1.5456 H       1  UNL1        0.0000
     32 H          -2.6218   -2.9782   -1.1783 H       1  UNL1        0.0000
     33 H          -0.9377   -2.2727    1.4980 H       1  UNL1        0.0000
     34 H           3.6405   -1.5875    2.0027 H       1  UNL1        0.0000
     35 H           3.9203    2.6153   -2.1888 H       1  UNL1        0.0000
     36 H           6.3841    2.6756   -1.6046 H       1  UNL1        0.0000
     37 H           8.2202    1.7664   -0.2006 H       1  UNL1        0.0000
     38 H           5.7028   -0.8070    1.7519 H       1  UNL1        0.0000
     39 H          -0.5694    0.0205   -2.5580 H       1  UNL1        0.0000
     40 H          -1.0168    1.7899   -0.8207 H       1  UNL1        0.0000
     41 H          -2.9616    1.4953    1.1843 H       1  UNL1        0.0000
@<TRIPOS>BOND
     1     1     2    1
     2     2     3    2
     3     3     4   ar
     4     4     5   ar
     5     5     6   ar
     6     6     7   ar
     7     7     8    1
     8     8     9    2
     9     9    10    1
    10    10    11   ar
    11    11    12   ar
    12    12    13   ar
    13    13    14   ar
    14    14    15   ar
    15    15    16   ar
    16    16    17   ar
    17    17    18   ar
    18    18    19   ar
    19    19    20   ar
    20    20    21   ar
    21    21    22   ar
    22    14    23   ar
    23    23    24    1
    24     7    25   ar
    25    25    26    2
    26    26     1    1
    27    25     3   ar
    28    24     8    1
    29    23    10   ar
    30    22    13   ar
    31    22    17   ar
    32     1    27    1
    33     1    28    1
    34     2    29    1
    35     4    30    1
    36     5    31    1
    37     6    32    1
    38     9    33    1
    39    12    34    1
    40    16    35    1
    41    18    36    1
    42    19    37    1
    43    21    38    1
    44    24    39    1
    45    24    40    1
    46    26    41    1
